file 2099122 1537484023                                         
version 2
run KHOPCA_Network_Random-0-20180920-22:53:31-8756
attr configname KHOPCA_Network_Random
attr datetime 20180920-22:53:31
attr experiment KHOPCA_Network_Random
attr inifile omnetpp.ini
attr iterationvars ""
attr iterationvarsf ""
attr measurement ""
attr network SensorNetwork
attr processid 8756
attr repetition 0
attr replication #0
attr resultdir results
attr runnumber 0
attr seedset 0
param *.numHosts 50
param **.constraintAreaMinX 0m
param **.constraintAreaMinY 0m
param **.constraintAreaMinZ 0m
param **.constraintAreaMaxX 2000m
param **.constraintAreaMaxY 2000m
param **.constraintAreaMaxZ 10m
param *.host*.wlan[*].typename "\"IdealWirelessNic\""
param *.host*.wlan[*].mac.useAck false
param *.host*.wlan[*].mac.fullDuplex false
param *.host*.wlan[*].radio.transmitter.communicationRange 300m
param *.host*.wlan[*].radio.receiver.ignoreInterference true
param *.host*.**.bitrate 1Mbps
param *.visualizer.interfaceTableVisualizer.displayInterfaceTables false
param *.visualizer.interfaceTableVisualizer.interfaceFilter "\"wlan*\""
param *.visualizer.interfaceTableVisualizer.format "\"%N\\n%n\""
param *.visualizer.interfaceTableVisualizer.displacementHint "\"left\""
param *.visualizer.sceneVisualizer.descriptionFigure "\"title\""
param *.visualizer.linkBreakVisualizer.displayLinkBreaks true
param *.visualizer.packetDropVisualizer.displayPacketDrops true
param *.visualizer.packetDropVisualizer.packetFilter "\"UDPData*\""
param *.visualizer.mediumVisualizer.signalPropagationAnimationSpeed 0.000001
param *.visualizer.mediumVisualizer.signalTransmissionAnimationSpeed 0.0005
param *.visualizer.mediumVisualizer.displayTransmissions true
param *.visualizer.mediumVisualizer.displayReceptions true
param *.visualizer.mediumVisualizer.displaySignals false
param *.configurator.config "xml(\"<config><interface hosts='**' address='10.0.0.x' netmask='255.255.255.0'/><autoroute metric='errorRate'/></config>\")"
param *.configurator.optimizeRoutes false
param *.host*.routingTable.netmaskRoutes "\"\""
param *.configurator.addStaticRoutes false
param *.host*.wlan[0].radio.displayCommunicationRange false
param *.host*.wlan[0].radio.energyConsumerType "\"StateBasedEpEnergyConsumer\""
param **.host*.energyStorageType "\"SimpleEpEnergyStorage\""
param **.host*.energyStorage.nominalCapacity 1J
param **.host[*].energyStorage.initialCapacity "uniform(index * 0.01J, this.nominalCapacity)"
param **.host[*].khopca.updateInterval 3
param **.host[*].mobilityType "\"RandomWPMobility\""
param **.host[*].mobility.speed "uniform(index * 0.2mps,20mps)"
param **.host[*].mobility.waypointProximity 100m
param **.host[*].mobility.waitTime uniform(0s,1s)
param **.constraintAreaMinX 100m
param **.constraintAreaMinY 50m
param **.constraintAreaMinZ 0m
param **.constraintAreaMaxX 1000m
param **.constraintAreaMaxY 950m
param **.constraintAreaMaxZ 10m
param **.hasStatus true

vector 0 SensorNetwork.host[0].energyStorage residualEnergyCapacity:vector ETV
attr interpolationmode linear
attr source residualEnergyCapacityChanged
attr title "Residual energy capacity, vector"
vector 1 SensorNetwork.host[0].wlan[0].queue queueLength:vector ETV
attr interpolationmode sample-hold
attr title "queue length, vector"
vector 2 SensorNetwork.host[1].energyStorage residualEnergyCapacity:vector ETV
attr interpolationmode linear
attr source residualEnergyCapacityChanged
attr title "Residual energy capacity, vector"
vector 3 SensorNetwork.host[1].wlan[0].queue queueLength:vector ETV
attr interpolationmode sample-hold
attr title "queue length, vector"
vector 4 SensorNetwork.host[2].energyStorage residualEnergyCapacity:vector ETV
attr interpolationmode linear
attr source residualEnergyCapacityChanged
attr title "Residual energy capacity, vector"
vector 5 SensorNetwork.host[2].wlan[0].queue queueLength:vector ETV
attr interpolationmode sample-hold
attr title "queue length, vector"
vector 6 SensorNetwork.host[3].energyStorage residualEnergyCapacity:vector ETV
attr interpolationmode linear
attr source residualEnergyCapacityChanged
attr title "Residual energy capacity, vector"
vector 7 SensorNetwork.host[3].wlan[0].queue queueLength:vector ETV
attr interpolationmode sample-hold
attr title "queue length, vector"
vector 8 SensorNetwork.host[4].energyStorage residualEnergyCapacity:vector ETV
attr interpolationmode linear
attr source residualEnergyCapacityChanged
attr title "Residual energy capacity, vector"
vector 9 SensorNetwork.host[4].wlan[0].queue queueLength:vector ETV
attr interpolationmode sample-hold
attr title "queue length, vector"
vector 10 SensorNetwork.host[5].energyStorage residualEnergyCapacity:vector ETV
attr interpolationmode linear
attr source residualEnergyCapacityChanged
attr title "Residual energy capacity, vector"
vector 11 SensorNetwork.host[5].wlan[0].queue queueLength:vector ETV
attr interpolationmode sample-hold
attr title "queue length, vector"
vector 12 SensorNetwork.host[6].energyStorage residualEnergyCapacity:vector ETV
attr interpolationmode linear
attr source residualEnergyCapacityChanged
attr title "Residual energy capacity, vector"
vector 13 SensorNetwork.host[6].wlan[0].queue queueLength:vector ETV
attr interpolationmode sample-hold
attr title "queue length, vector"
vector 14 SensorNetwork.host[7].energyStorage residualEnergyCapacity:vector ETV
attr interpolationmode linear
attr source residualEnergyCapacityChanged
attr title "Residual energy capacity, vector"
vector 15 SensorNetwork.host[7].wlan[0].queue queueLength:vector ETV
attr interpolationmode sample-hold
attr title "queue length, vector"
vector 16 SensorNetwork.host[8].energyStorage residualEnergyCapacity:vector ETV
attr interpolationmode linear
attr source residualEnergyCapacityChanged
attr title "Residual energy capacity, vector"
vector 17 SensorNetwork.host[8].wlan[0].queue queueLength:vector ETV
attr interpolationmode sample-hold
attr title "queue length, vector"
vector 18 SensorNetwork.host[9].energyStorage residualEnergyCapacity:vector ETV
attr interpolationmode linear
attr source residualEnergyCapacityChanged
attr title "Residual energy capacity, vector"
vector 19 SensorNetwork.host[9].wlan[0].queue queueLength:vector ETV
attr interpolationmode sample-hold
attr title "queue length, vector"
vector 20 SensorNetwork.host[10].energyStorage residualEnergyCapacity:vector ETV
attr interpolationmode linear
attr source residualEnergyCapacityChanged
attr title "Residual energy capacity, vector"
vector 21 SensorNetwork.host[10].wlan[0].queue queueLength:vector ETV
attr interpolationmode sample-hold
attr title "queue length, vector"
vector 22 SensorNetwork.host[11].energyStorage residualEnergyCapacity:vector ETV
attr interpolationmode linear
attr source residualEnergyCapacityChanged
attr title "Residual energy capacity, vector"
vector 23 SensorNetwork.host[11].wlan[0].queue queueLength:vector ETV
attr interpolationmode sample-hold
attr title "queue length, vector"
vector 24 SensorNetwork.host[12].energyStorage residualEnergyCapacity:vector ETV
attr interpolationmode linear
attr source residualEnergyCapacityChanged
attr title "Residual energy capacity, vector"
vector 25 SensorNetwork.host[12].wlan[0].queue queueLength:vector ETV
attr interpolationmode sample-hold
attr title "queue length, vector"
vector 26 SensorNetwork.host[13].energyStorage residualEnergyCapacity:vector ETV
attr interpolationmode linear
attr source residualEnergyCapacityChanged
attr title "Residual energy capacity, vector"
vector 27 SensorNetwork.host[13].wlan[0].queue queueLength:vector ETV
attr interpolationmode sample-hold
attr title "queue length, vector"
vector 28 SensorNetwork.host[14].energyStorage residualEnergyCapacity:vector ETV
attr interpolationmode linear
attr source residualEnergyCapacityChanged
attr title "Residual energy capacity, vector"
vector 29 SensorNetwork.host[14].wlan[0].queue queueLength:vector ETV
attr interpolationmode sample-hold
attr title "queue length, vector"
vector 30 SensorNetwork.host[15].energyStorage residualEnergyCapacity:vector ETV
attr interpolationmode linear
attr source residualEnergyCapacityChanged
attr title "Residual energy capacity, vector"
vector 31 SensorNetwork.host[15].wlan[0].queue queueLength:vector ETV
attr interpolationmode sample-hold
attr title "queue length, vector"
vector 32 SensorNetwork.host[16].energyStorage residualEnergyCapacity:vector ETV
attr interpolationmode linear
attr source residualEnergyCapacityChanged
attr title "Residual energy capacity, vector"
vector 33 SensorNetwork.host[16].wlan[0].queue queueLength:vector ETV
attr interpolationmode sample-hold
attr title "queue length, vector"
vector 34 SensorNetwork.host[17].energyStorage residualEnergyCapacity:vector ETV
attr interpolationmode linear
attr source residualEnergyCapacityChanged
attr title "Residual energy capacity, vector"
vector 35 SensorNetwork.host[17].wlan[0].queue queueLength:vector ETV
attr interpolationmode sample-hold
attr title "queue length, vector"
vector 36 SensorNetwork.host[18].energyStorage residualEnergyCapacity:vector ETV
attr interpolationmode linear
attr source residualEnergyCapacityChanged
attr title "Residual energy capacity, vector"
vector 37 SensorNetwork.host[18].wlan[0].queue queueLength:vector ETV
attr interpolationmode sample-hold
attr title "queue length, vector"
vector 38 SensorNetwork.host[19].energyStorage residualEnergyCapacity:vector ETV
attr interpolationmode linear
attr source residualEnergyCapacityChanged
attr title "Residual energy capacity, vector"
vector 39 SensorNetwork.host[19].wlan[0].queue queueLength:vector ETV
attr interpolationmode sample-hold
attr title "queue length, vector"
vector 40 SensorNetwork.host[20].energyStorage residualEnergyCapacity:vector ETV
attr interpolationmode linear
attr source residualEnergyCapacityChanged
attr title "Residual energy capacity, vector"
vector 41 SensorNetwork.host[20].wlan[0].queue queueLength:vector ETV
attr interpolationmode sample-hold
attr title "queue length, vector"
vector 42 SensorNetwork.host[21].energyStorage residualEnergyCapacity:vector ETV
attr interpolationmode linear
attr source residualEnergyCapacityChanged
attr title "Residual energy capacity, vector"
vector 43 SensorNetwork.host[21].wlan[0].queue queueLength:vector ETV
attr interpolationmode sample-hold
attr title "queue length, vector"
vector 44 SensorNetwork.host[22].energyStorage residualEnergyCapacity:vector ETV
attr interpolationmode linear
attr source residualEnergyCapacityChanged
attr title "Residual energy capacity, vector"
vector 45 SensorNetwork.host[22].wlan[0].queue queueLength:vector ETV
attr interpolationmode sample-hold
attr title "queue length, vector"
vector 46 SensorNetwork.host[23].energyStorage residualEnergyCapacity:vector ETV
attr interpolationmode linear
attr source residualEnergyCapacityChanged
attr title "Residual energy capacity, vector"
vector 47 SensorNetwork.host[23].wlan[0].queue queueLength:vector ETV
attr interpolationmode sample-hold
attr title "queue length, vector"
vector 48 SensorNetwork.host[24].energyStorage residualEnergyCapacity:vector ETV
attr interpolationmode linear
attr source residualEnergyCapacityChanged
attr title "Residual energy capacity, vector"
vector 49 SensorNetwork.host[24].wlan[0].queue queueLength:vector ETV
attr interpolationmode sample-hold
attr title "queue length, vector"
vector 50 SensorNetwork.host[25].energyStorage residualEnergyCapacity:vector ETV
attr interpolationmode linear
attr source residualEnergyCapacityChanged
attr title "Residual energy capacity, vector"
vector 51 SensorNetwork.host[25].wlan[0].queue queueLength:vector ETV
attr interpolationmode sample-hold
attr title "queue length, vector"
vector 52 SensorNetwork.host[26].energyStorage residualEnergyCapacity:vector ETV
attr interpolationmode linear
attr source residualEnergyCapacityChanged
attr title "Residual energy capacity, vector"
vector 53 SensorNetwork.host[26].wlan[0].queue queueLength:vector ETV
attr interpolationmode sample-hold
attr title "queue length, vector"
vector 54 SensorNetwork.host[27].energyStorage residualEnergyCapacity:vector ETV
attr interpolationmode linear
attr source residualEnergyCapacityChanged
attr title "Residual energy capacity, vector"
vector 55 SensorNetwork.host[27].wlan[0].queue queueLength:vector ETV
attr interpolationmode sample-hold
attr title "queue length, vector"
vector 56 SensorNetwork.host[28].energyStorage residualEnergyCapacity:vector ETV
attr interpolationmode linear
attr source residualEnergyCapacityChanged
attr title "Residual energy capacity, vector"
vector 57 SensorNetwork.host[28].wlan[0].queue queueLength:vector ETV
attr interpolationmode sample-hold
attr title "queue length, vector"
vector 58 SensorNetwork.host[29].energyStorage residualEnergyCapacity:vector ETV
attr interpolationmode linear
attr source residualEnergyCapacityChanged
attr title "Residual energy capacity, vector"
vector 59 SensorNetwork.host[29].wlan[0].queue queueLength:vector ETV
attr interpolationmode sample-hold
attr title "queue length, vector"
vector 60 SensorNetwork.host[30].energyStorage residualEnergyCapacity:vector ETV
attr interpolationmode linear
attr source residualEnergyCapacityChanged
attr title "Residual energy capacity, vector"
vector 61 SensorNetwork.host[30].wlan[0].queue queueLength:vector ETV
attr interpolationmode sample-hold
attr title "queue length, vector"
vector 62 SensorNetwork.host[31].energyStorage residualEnergyCapacity:vector ETV
attr interpolationmode linear
attr source residualEnergyCapacityChanged
attr title "Residual energy capacity, vector"
vector 63 SensorNetwork.host[31].wlan[0].queue queueLength:vector ETV
attr interpolationmode sample-hold
attr title "queue length, vector"
vector 64 SensorNetwork.host[32].energyStorage residualEnergyCapacity:vector ETV
attr interpolationmode linear
attr source residualEnergyCapacityChanged
attr title "Residual energy capacity, vector"
vector 65 SensorNetwork.host[32].wlan[0].queue queueLength:vector ETV
attr interpolationmode sample-hold
attr title "queue length, vector"
vector 66 SensorNetwork.host[33].energyStorage residualEnergyCapacity:vector ETV
attr interpolationmode linear
attr source residualEnergyCapacityChanged
attr title "Residual energy capacity, vector"
vector 67 SensorNetwork.host[33].wlan[0].queue queueLength:vector ETV
attr interpolationmode sample-hold
attr title "queue length, vector"
vector 68 SensorNetwork.host[34].energyStorage residualEnergyCapacity:vector ETV
attr interpolationmode linear
attr source residualEnergyCapacityChanged
attr title "Residual energy capacity, vector"
vector 69 SensorNetwork.host[34].wlan[0].queue queueLength:vector ETV
attr interpolationmode sample-hold
attr title "queue length, vector"
vector 70 SensorNetwork.host[35].energyStorage residualEnergyCapacity:vector ETV
attr interpolationmode linear
attr source residualEnergyCapacityChanged
attr title "Residual energy capacity, vector"
vector 71 SensorNetwork.host[35].wlan[0].queue queueLength:vector ETV
attr interpolationmode sample-hold
attr title "queue length, vector"
vector 72 SensorNetwork.host[36].energyStorage residualEnergyCapacity:vector ETV
attr interpolationmode linear
attr source residualEnergyCapacityChanged
attr title "Residual energy capacity, vector"
vector 73 SensorNetwork.host[36].wlan[0].queue queueLength:vector ETV
attr interpolationmode sample-hold
attr title "queue length, vector"
vector 74 SensorNetwork.host[37].energyStorage residualEnergyCapacity:vector ETV
attr interpolationmode linear
attr source residualEnergyCapacityChanged
attr title "Residual energy capacity, vector"
vector 75 SensorNetwork.host[37].wlan[0].queue queueLength:vector ETV
attr interpolationmode sample-hold
attr title "queue length, vector"
vector 76 SensorNetwork.host[38].energyStorage residualEnergyCapacity:vector ETV
attr interpolationmode linear
attr source residualEnergyCapacityChanged
attr title "Residual energy capacity, vector"
vector 77 SensorNetwork.host[38].wlan[0].queue queueLength:vector ETV
attr interpolationmode sample-hold
attr title "queue length, vector"
vector 78 SensorNetwork.host[39].energyStorage residualEnergyCapacity:vector ETV
attr interpolationmode linear
attr source residualEnergyCapacityChanged
attr title "Residual energy capacity, vector"
vector 79 SensorNetwork.host[39].wlan[0].queue queueLength:vector ETV
attr interpolationmode sample-hold
attr title "queue length, vector"
vector 80 SensorNetwork.host[40].energyStorage residualEnergyCapacity:vector ETV
attr interpolationmode linear
attr source residualEnergyCapacityChanged
attr title "Residual energy capacity, vector"
vector 81 SensorNetwork.host[40].wlan[0].queue queueLength:vector ETV
attr interpolationmode sample-hold
attr title "queue length, vector"
vector 82 SensorNetwork.host[41].energyStorage residualEnergyCapacity:vector ETV
attr interpolationmode linear
attr source residualEnergyCapacityChanged
attr title "Residual energy capacity, vector"
vector 83 SensorNetwork.host[41].wlan[0].queue queueLength:vector ETV
attr interpolationmode sample-hold
attr title "queue length, vector"
vector 84 SensorNetwork.host[42].energyStorage residualEnergyCapacity:vector ETV
attr interpolationmode linear
attr source residualEnergyCapacityChanged
attr title "Residual energy capacity, vector"
vector 85 SensorNetwork.host[42].wlan[0].queue queueLength:vector ETV
attr interpolationmode sample-hold
attr title "queue length, vector"
vector 86 SensorNetwork.host[43].energyStorage residualEnergyCapacity:vector ETV
attr interpolationmode linear
attr source residualEnergyCapacityChanged
attr title "Residual energy capacity, vector"
vector 87 SensorNetwork.host[43].wlan[0].queue queueLength:vector ETV
attr interpolationmode sample-hold
attr title "queue length, vector"
vector 88 SensorNetwork.host[44].energyStorage residualEnergyCapacity:vector ETV
attr interpolationmode linear
attr source residualEnergyCapacityChanged
attr title "Residual energy capacity, vector"
vector 89 SensorNetwork.host[44].wlan[0].queue queueLength:vector ETV
attr interpolationmode sample-hold
attr title "queue length, vector"
vector 90 SensorNetwork.host[45].energyStorage residualEnergyCapacity:vector ETV
attr interpolationmode linear
attr source residualEnergyCapacityChanged
attr title "Residual energy capacity, vector"
vector 91 SensorNetwork.host[45].wlan[0].queue queueLength:vector ETV
attr interpolationmode sample-hold
attr title "queue length, vector"
vector 92 SensorNetwork.host[46].energyStorage residualEnergyCapacity:vector ETV
attr interpolationmode linear
attr source residualEnergyCapacityChanged
attr title "Residual energy capacity, vector"
vector 93 SensorNetwork.host[46].wlan[0].queue queueLength:vector ETV
attr interpolationmode sample-hold
attr title "queue length, vector"
vector 94 SensorNetwork.host[47].energyStorage residualEnergyCapacity:vector ETV
attr interpolationmode linear
attr source residualEnergyCapacityChanged
attr title "Residual energy capacity, vector"
vector 95 SensorNetwork.host[47].wlan[0].queue queueLength:vector ETV
attr interpolationmode sample-hold
attr title "queue length, vector"
vector 96 SensorNetwork.host[48].energyStorage residualEnergyCapacity:vector ETV
attr interpolationmode linear
attr source residualEnergyCapacityChanged
attr title "Residual energy capacity, vector"
vector 97 SensorNetwork.host[48].wlan[0].queue queueLength:vector ETV
attr interpolationmode sample-hold
attr title "queue length, vector"
vector 98 SensorNetwork.host[49].energyStorage residualEnergyCapacity:vector ETV
attr interpolationmode linear
attr source residualEnergyCapacityChanged
attr title "Residual energy capacity, vector"
vector 99 SensorNetwork.host[49].wlan[0].queue queueLength:vector ETV
attr interpolationmode sample-hold
attr title "queue length, vector"
vector 100 SensorNetwork.host[0].energyStorage powerConsumption:vector ETV
attr interpolationmode sample-hold
attr source powerConsumptionChanged
attr title "Power consumption, vector"
vector 101 SensorNetwork.host[1].energyStorage powerConsumption:vector ETV
attr interpolationmode sample-hold
attr source powerConsumptionChanged
attr title "Power consumption, vector"
vector 102 SensorNetwork.host[2].energyStorage powerConsumption:vector ETV
attr interpolationmode sample-hold
attr source powerConsumptionChanged
attr title "Power consumption, vector"
vector 103 SensorNetwork.host[3].energyStorage powerConsumption:vector ETV
attr interpolationmode sample-hold
attr source powerConsumptionChanged
attr title "Power consumption, vector"
vector 104 SensorNetwork.host[4].energyStorage powerConsumption:vector ETV
attr interpolationmode sample-hold
attr source powerConsumptionChanged
attr title "Power consumption, vector"
vector 105 SensorNetwork.host[5].energyStorage powerConsumption:vector ETV
attr interpolationmode sample-hold
attr source powerConsumptionChanged
attr title "Power consumption, vector"
vector 106 SensorNetwork.host[6].energyStorage powerConsumption:vector ETV
attr interpolationmode sample-hold
attr source powerConsumptionChanged
attr title "Power consumption, vector"
vector 107 SensorNetwork.host[7].energyStorage powerConsumption:vector ETV
attr interpolationmode sample-hold
attr source powerConsumptionChanged
attr title "Power consumption, vector"
vector 108 SensorNetwork.host[8].energyStorage powerConsumption:vector ETV
attr interpolationmode sample-hold
attr source powerConsumptionChanged
attr title "Power consumption, vector"
vector 109 SensorNetwork.host[9].energyStorage powerConsumption:vector ETV
attr interpolationmode sample-hold
attr source powerConsumptionChanged
attr title "Power consumption, vector"
vector 110 SensorNetwork.host[10].energyStorage powerConsumption:vector ETV
attr interpolationmode sample-hold
attr source powerConsumptionChanged
attr title "Power consumption, vector"
vector 111 SensorNetwork.host[11].energyStorage powerConsumption:vector ETV
attr interpolationmode sample-hold
attr source powerConsumptionChanged
attr title "Power consumption, vector"
vector 112 SensorNetwork.host[12].energyStorage powerConsumption:vector ETV
attr interpolationmode sample-hold
attr source powerConsumptionChanged
attr title "Power consumption, vector"
vector 113 SensorNetwork.host[13].energyStorage powerConsumption:vector ETV
attr interpolationmode sample-hold
attr source powerConsumptionChanged
attr title "Power consumption, vector"
vector 114 SensorNetwork.host[14].energyStorage powerConsumption:vector ETV
attr interpolationmode sample-hold
attr source powerConsumptionChanged
attr title "Power consumption, vector"
vector 115 SensorNetwork.host[15].energyStorage powerConsumption:vector ETV
attr interpolationmode sample-hold
attr source powerConsumptionChanged
attr title "Power consumption, vector"
vector 116 SensorNetwork.host[16].energyStorage powerConsumption:vector ETV
attr interpolationmode sample-hold
attr source powerConsumptionChanged
attr title "Power consumption, vector"
vector 117 SensorNetwork.host[17].energyStorage powerConsumption:vector ETV
attr interpolationmode sample-hold
attr source powerConsumptionChanged
attr title "Power consumption, vector"
vector 118 SensorNetwork.host[18].energyStorage powerConsumption:vector ETV
attr interpolationmode sample-hold
attr source powerConsumptionChanged
attr title "Power consumption, vector"
vector 119 SensorNetwork.host[19].energyStorage powerConsumption:vector ETV
attr interpolationmode sample-hold
attr source powerConsumptionChanged
attr title "Power consumption, vector"
vector 120 SensorNetwork.host[20].energyStorage powerConsumption:vector ETV
attr interpolationmode sample-hold
attr source powerConsumptionChanged
attr title "Power consumption, vector"
vector 121 SensorNetwork.host[21].energyStorage powerConsumption:vector ETV
attr interpolationmode sample-hold
attr source powerConsumptionChanged
attr title "Power consumption, vector"
vector 122 SensorNetwork.host[22].energyStorage powerConsumption:vector ETV
attr interpolationmode sample-hold
attr source powerConsumptionChanged
attr title "Power consumption, vector"
vector 123 SensorNetwork.host[23].energyStorage powerConsumption:vector ETV
attr interpolationmode sample-hold
attr source powerConsumptionChanged
attr title "Power consumption, vector"
vector 124 SensorNetwork.host[24].energyStorage powerConsumption:vector ETV
attr interpolationmode sample-hold
attr source powerConsumptionChanged
attr title "Power consumption, vector"
vector 125 SensorNetwork.host[25].energyStorage powerConsumption:vector ETV
attr interpolationmode sample-hold
attr source powerConsumptionChanged
attr title "Power consumption, vector"
vector 126 SensorNetwork.host[26].energyStorage powerConsumption:vector ETV
attr interpolationmode sample-hold
attr source powerConsumptionChanged
attr title "Power consumption, vector"
vector 127 SensorNetwork.host[27].energyStorage powerConsumption:vector ETV
attr interpolationmode sample-hold
attr source powerConsumptionChanged
attr title "Power consumption, vector"
vector 128 SensorNetwork.host[28].energyStorage powerConsumption:vector ETV
attr interpolationmode sample-hold
attr source powerConsumptionChanged
attr title "Power consumption, vector"
vector 129 SensorNetwork.host[29].energyStorage powerConsumption:vector ETV
attr interpolationmode sample-hold
attr source powerConsumptionChanged
attr title "Power consumption, vector"
vector 130 SensorNetwork.host[30].energyStorage powerConsumption:vector ETV
attr interpolationmode sample-hold
attr source powerConsumptionChanged
attr title "Power consumption, vector"
vector 131 SensorNetwork.host[31].energyStorage powerConsumption:vector ETV
attr interpolationmode sample-hold
attr source powerConsumptionChanged
attr title "Power consumption, vector"
vector 132 SensorNetwork.host[32].energyStorage powerConsumption:vector ETV
attr interpolationmode sample-hold
attr source powerConsumptionChanged
attr title "Power consumption, vector"
vector 133 SensorNetwork.host[33].energyStorage powerConsumption:vector ETV
attr interpolationmode sample-hold
attr source powerConsumptionChanged
attr title "Power consumption, vector"
vector 134 SensorNetwork.host[34].energyStorage powerConsumption:vector ETV
attr interpolationmode sample-hold
attr source powerConsumptionChanged
attr title "Power consumption, vector"
vector 135 SensorNetwork.host[35].energyStorage powerConsumption:vector ETV
attr interpolationmode sample-hold
attr source powerConsumptionChanged
attr title "Power consumption, vector"
vector 136 SensorNetwork.host[36].energyStorage powerConsumption:vector ETV
attr interpolationmode sample-hold
attr source powerConsumptionChanged
attr title "Power consumption, vector"
vector 137 SensorNetwork.host[37].energyStorage powerConsumption:vector ETV
attr interpolationmode sample-hold
attr source powerConsumptionChanged
attr title "Power consumption, vector"
vector 138 SensorNetwork.host[38].energyStorage powerConsumption:vector ETV
attr interpolationmode sample-hold
attr source powerConsumptionChanged
attr title "Power consumption, vector"
vector 139 SensorNetwork.host[39].energyStorage powerConsumption:vector ETV
attr interpolationmode sample-hold
attr source powerConsumptionChanged
attr title "Power consumption, vector"
vector 140 SensorNetwork.host[40].energyStorage powerConsumption:vector ETV
attr interpolationmode sample-hold
attr source powerConsumptionChanged
attr title "Power consumption, vector"
vector 141 SensorNetwork.host[41].energyStorage powerConsumption:vector ETV
attr interpolationmode sample-hold
attr source powerConsumptionChanged
attr title "Power consumption, vector"
vector 142 SensorNetwork.host[42].energyStorage powerConsumption:vector ETV
attr interpolationmode sample-hold
attr source powerConsumptionChanged
attr title "Power consumption, vector"
vector 143 SensorNetwork.host[43].energyStorage powerConsumption:vector ETV
attr interpolationmode sample-hold
attr source powerConsumptionChanged
attr title "Power consumption, vector"
vector 144 SensorNetwork.host[44].energyStorage powerConsumption:vector ETV
attr interpolationmode sample-hold
attr source powerConsumptionChanged
attr title "Power consumption, vector"
vector 145 SensorNetwork.host[45].energyStorage powerConsumption:vector ETV
attr interpolationmode sample-hold
attr source powerConsumptionChanged
attr title "Power consumption, vector"
vector 146 SensorNetwork.host[46].energyStorage powerConsumption:vector ETV
attr interpolationmode sample-hold
attr source powerConsumptionChanged
attr title "Power consumption, vector"
vector 147 SensorNetwork.host[47].energyStorage powerConsumption:vector ETV
attr interpolationmode sample-hold
attr source powerConsumptionChanged
attr title "Power consumption, vector"
vector 148 SensorNetwork.host[48].energyStorage powerConsumption:vector ETV
attr interpolationmode sample-hold
attr source powerConsumptionChanged
attr title "Power consumption, vector"
vector 149 SensorNetwork.host[49].energyStorage powerConsumption:vector ETV
attr interpolationmode sample-hold
attr source powerConsumptionChanged
attr title "Power consumption, vector"
vector 150 SensorNetwork.host[0].wlan[0].radio radioMode:vector ETV
attr interpolationmode sample-hold
attr source radioModeChanged
attr title "Radio mode, vector"
vector 151 SensorNetwork.host[0].wlan[0].radio.energyConsumer powerConsumption:vector ETV
attr interpolationmode sample-hold
attr source powerConsumptionChanged
attr title "Power consumption, vector"
vector 152 SensorNetwork.host[1].wlan[0].radio radioMode:vector ETV
attr interpolationmode sample-hold
attr source radioModeChanged
attr title "Radio mode, vector"
vector 153 SensorNetwork.host[1].wlan[0].radio.energyConsumer powerConsumption:vector ETV
attr interpolationmode sample-hold
attr source powerConsumptionChanged
attr title "Power consumption, vector"
vector 154 SensorNetwork.host[2].wlan[0].radio radioMode:vector ETV
attr interpolationmode sample-hold
attr source radioModeChanged
attr title "Radio mode, vector"
vector 155 SensorNetwork.host[2].wlan[0].radio.energyConsumer powerConsumption:vector ETV
attr interpolationmode sample-hold
attr source powerConsumptionChanged
attr title "Power consumption, vector"
vector 156 SensorNetwork.host[3].wlan[0].radio radioMode:vector ETV
attr interpolationmode sample-hold
attr source radioModeChanged
attr title "Radio mode, vector"
vector 157 SensorNetwork.host[3].wlan[0].radio.energyConsumer powerConsumption:vector ETV
attr interpolationmode sample-hold
attr source powerConsumptionChanged
attr title "Power consumption, vector"
vector 158 SensorNetwork.host[4].wlan[0].radio radioMode:vector ETV
attr interpolationmode sample-hold
attr source radioModeChanged
attr title "Radio mode, vector"
vector 159 SensorNetwork.host[4].wlan[0].radio.energyConsumer powerConsumption:vector ETV
attr interpolationmode sample-hold
attr source powerConsumptionChanged
attr title "Power consumption, vector"
vector 160 SensorNetwork.host[5].wlan[0].radio radioMode:vector ETV
attr interpolationmode sample-hold
attr source radioModeChanged
attr title "Radio mode, vector"
vector 161 SensorNetwork.host[5].wlan[0].radio.energyConsumer powerConsumption:vector ETV
attr interpolationmode sample-hold
attr source powerConsumptionChanged
attr title "Power consumption, vector"
vector 162 SensorNetwork.host[6].wlan[0].radio radioMode:vector ETV
attr interpolationmode sample-hold
attr source radioModeChanged
attr title "Radio mode, vector"
vector 163 SensorNetwork.host[6].wlan[0].radio.energyConsumer powerConsumption:vector ETV
attr interpolationmode sample-hold
attr source powerConsumptionChanged
attr title "Power consumption, vector"
vector 164 SensorNetwork.host[7].wlan[0].radio radioMode:vector ETV
attr interpolationmode sample-hold
attr source radioModeChanged
attr title "Radio mode, vector"
vector 165 SensorNetwork.host[7].wlan[0].radio.energyConsumer powerConsumption:vector ETV
attr interpolationmode sample-hold
attr source powerConsumptionChanged
attr title "Power consumption, vector"
vector 166 SensorNetwork.host[8].wlan[0].radio radioMode:vector ETV
attr interpolationmode sample-hold
attr source radioModeChanged
attr title "Radio mode, vector"
vector 167 SensorNetwork.host[8].wlan[0].radio.energyConsumer powerConsumption:vector ETV
attr interpolationmode sample-hold
attr source powerConsumptionChanged
attr title "Power consumption, vector"
vector 168 SensorNetwork.host[9].wlan[0].radio radioMode:vector ETV
attr interpolationmode sample-hold
attr source radioModeChanged
attr title "Radio mode, vector"
vector 169 SensorNetwork.host[9].wlan[0].radio.energyConsumer powerConsumption:vector ETV
attr interpolationmode sample-hold
attr source powerConsumptionChanged
attr title "Power consumption, vector"
vector 170 SensorNetwork.host[10].wlan[0].radio radioMode:vector ETV
attr interpolationmode sample-hold
attr source radioModeChanged
attr title "Radio mode, vector"
vector 171 SensorNetwork.host[10].wlan[0].radio.energyConsumer powerConsumption:vector ETV
attr interpolationmode sample-hold
attr source powerConsumptionChanged
attr title "Power consumption, vector"
vector 172 SensorNetwork.host[11].wlan[0].radio radioMode:vector ETV
attr interpolationmode sample-hold
attr source radioModeChanged
attr title "Radio mode, vector"
vector 173 SensorNetwork.host[11].wlan[0].radio.energyConsumer powerConsumption:vector ETV
attr interpolationmode sample-hold
attr source powerConsumptionChanged
attr title "Power consumption, vector"
vector 174 SensorNetwork.host[12].wlan[0].radio radioMode:vector ETV
attr interpolationmode sample-hold
attr source radioModeChanged
attr title "Radio mode, vector"
vector 175 SensorNetwork.host[12].wlan[0].radio.energyConsumer powerConsumption:vector ETV
attr interpolationmode sample-hold
attr source powerConsumptionChanged
attr title "Power consumption, vector"
vector 176 SensorNetwork.host[13].wlan[0].radio radioMode:vector ETV
attr interpolationmode sample-hold
attr source radioModeChanged
attr title "Radio mode, vector"
vector 177 SensorNetwork.host[13].wlan[0].radio.energyConsumer powerConsumption:vector ETV
attr interpolationmode sample-hold
attr source powerConsumptionChanged
attr title "Power consumption, vector"
vector 178 SensorNetwork.host[14].wlan[0].radio radioMode:vector ETV
attr interpolationmode sample-hold
attr source radioModeChanged
attr title "Radio mode, vector"
vector 179 SensorNetwork.host[14].wlan[0].radio.energyConsumer powerConsumption:vector ETV
attr interpolationmode sample-hold
attr source powerConsumptionChanged
attr title "Power consumption, vector"
vector 180 SensorNetwork.host[15].wlan[0].radio radioMode:vector ETV
attr interpolationmode sample-hold
attr source radioModeChanged
attr title "Radio mode, vector"
vector 181 SensorNetwork.host[15].wlan[0].radio.energyConsumer powerConsumption:vector ETV
attr interpolationmode sample-hold
attr source powerConsumptionChanged
attr title "Power consumption, vector"
vector 182 SensorNetwork.host[16].wlan[0].radio radioMode:vector ETV
attr interpolationmode sample-hold
attr source radioModeChanged
attr title "Radio mode, vector"
vector 183 SensorNetwork.host[16].wlan[0].radio.energyConsumer powerConsumption:vector ETV
attr interpolationmode sample-hold
attr source powerConsumptionChanged
attr title "Power consumption, vector"
vector 184 SensorNetwork.host[17].wlan[0].radio radioMode:vector ETV
attr interpolationmode sample-hold
attr source radioModeChanged
attr title "Radio mode, vector"
vector 185 SensorNetwork.host[17].wlan[0].radio.energyConsumer powerConsumption:vector ETV
attr interpolationmode sample-hold
attr source powerConsumptionChanged
attr title "Power consumption, vector"
vector 186 SensorNetwork.host[18].wlan[0].radio radioMode:vector ETV
attr interpolationmode sample-hold
attr source radioModeChanged
attr title "Radio mode, vector"
vector 187 SensorNetwork.host[18].wlan[0].radio.energyConsumer powerConsumption:vector ETV
attr interpolationmode sample-hold
attr source powerConsumptionChanged
attr title "Power consumption, vector"
vector 188 SensorNetwork.host[19].wlan[0].radio radioMode:vector ETV
attr interpolationmode sample-hold
attr source radioModeChanged
attr title "Radio mode, vector"
vector 189 SensorNetwork.host[19].wlan[0].radio.energyConsumer powerConsumption:vector ETV
attr interpolationmode sample-hold
attr source powerConsumptionChanged
attr title "Power consumption, vector"
vector 190 SensorNetwork.host[20].wlan[0].radio radioMode:vector ETV
attr interpolationmode sample-hold
attr source radioModeChanged
attr title "Radio mode, vector"
vector 191 SensorNetwork.host[20].wlan[0].radio.energyConsumer powerConsumption:vector ETV
attr interpolationmode sample-hold
attr source powerConsumptionChanged
attr title "Power consumption, vector"
vector 192 SensorNetwork.host[21].wlan[0].radio radioMode:vector ETV
attr interpolationmode sample-hold
attr source radioModeChanged
attr title "Radio mode, vector"
vector 193 SensorNetwork.host[21].wlan[0].radio.energyConsumer powerConsumption:vector ETV
attr interpolationmode sample-hold
attr source powerConsumptionChanged
attr title "Power consumption, vector"
vector 194 SensorNetwork.host[22].wlan[0].radio radioMode:vector ETV
attr interpolationmode sample-hold
attr source radioModeChanged
attr title "Radio mode, vector"
vector 195 SensorNetwork.host[22].wlan[0].radio.energyConsumer powerConsumption:vector ETV
attr interpolationmode sample-hold
attr source powerConsumptionChanged
attr title "Power consumption, vector"
vector 196 SensorNetwork.host[23].wlan[0].radio radioMode:vector ETV
attr interpolationmode sample-hold
attr source radioModeChanged
attr title "Radio mode, vector"
vector 197 SensorNetwork.host[23].wlan[0].radio.energyConsumer powerConsumption:vector ETV
attr interpolationmode sample-hold
attr source powerConsumptionChanged
attr title "Power consumption, vector"
vector 198 SensorNetwork.host[24].wlan[0].radio radioMode:vector ETV
attr interpolationmode sample-hold
attr source radioModeChanged
attr title "Radio mode, vector"
vector 199 SensorNetwork.host[24].wlan[0].radio.energyConsumer powerConsumption:vector ETV
attr interpolationmode sample-hold
attr source powerConsumptionChanged
attr title "Power consumption, vector"
vector 200 SensorNetwork.host[25].wlan[0].radio radioMode:vector ETV
attr interpolationmode sample-hold
attr source radioModeChanged
attr title "Radio mode, vector"
vector 201 SensorNetwork.host[25].wlan[0].radio.energyConsumer powerConsumption:vector ETV
attr interpolationmode sample-hold
attr source powerConsumptionChanged
attr title "Power consumption, vector"
vector 202 SensorNetwork.host[26].wlan[0].radio radioMode:vector ETV
attr interpolationmode sample-hold
attr source radioModeChanged
attr title "Radio mode, vector"
vector 203 SensorNetwork.host[26].wlan[0].radio.energyConsumer powerConsumption:vector ETV
attr interpolationmode sample-hold
attr source powerConsumptionChanged
attr title "Power consumption, vector"
vector 204 SensorNetwork.host[27].wlan[0].radio radioMode:vector ETV
attr interpolationmode sample-hold
attr source radioModeChanged
attr title "Radio mode, vector"
vector 205 SensorNetwork.host[27].wlan[0].radio.energyConsumer powerConsumption:vector ETV
attr interpolationmode sample-hold
attr source powerConsumptionChanged
attr title "Power consumption, vector"
vector 206 SensorNetwork.host[28].wlan[0].radio radioMode:vector ETV
attr interpolationmode sample-hold
attr source radioModeChanged
attr title "Radio mode, vector"
vector 207 SensorNetwork.host[28].wlan[0].radio.energyConsumer powerConsumption:vector ETV
attr interpolationmode sample-hold
attr source powerConsumptionChanged
attr title "Power consumption, vector"
vector 208 SensorNetwork.host[29].wlan[0].radio radioMode:vector ETV
attr interpolationmode sample-hold
attr source radioModeChanged
attr title "Radio mode, vector"
vector 209 SensorNetwork.host[29].wlan[0].radio.energyConsumer powerConsumption:vector ETV
attr interpolationmode sample-hold
attr source powerConsumptionChanged
attr title "Power consumption, vector"
vector 210 SensorNetwork.host[30].wlan[0].radio radioMode:vector ETV
attr interpolationmode sample-hold
attr source radioModeChanged
attr title "Radio mode, vector"
vector 211 SensorNetwork.host[30].wlan[0].radio.energyConsumer powerConsumption:vector ETV
attr interpolationmode sample-hold
attr source powerConsumptionChanged
attr title "Power consumption, vector"
vector 212 SensorNetwork.host[31].wlan[0].radio radioMode:vector ETV
attr interpolationmode sample-hold
attr source radioModeChanged
attr title "Radio mode, vector"
vector 213 SensorNetwork.host[31].wlan[0].radio.energyConsumer powerConsumption:vector ETV
attr interpolationmode sample-hold
attr source powerConsumptionChanged
attr title "Power consumption, vector"
vector 214 SensorNetwork.host[32].wlan[0].radio radioMode:vector ETV
attr interpolationmode sample-hold
attr source radioModeChanged
attr title "Radio mode, vector"
vector 215 SensorNetwork.host[32].wlan[0].radio.energyConsumer powerConsumption:vector ETV
attr interpolationmode sample-hold
attr source powerConsumptionChanged
attr title "Power consumption, vector"
vector 216 SensorNetwork.host[33].wlan[0].radio radioMode:vector ETV
attr interpolationmode sample-hold
attr source radioModeChanged
attr title "Radio mode, vector"
vector 217 SensorNetwork.host[33].wlan[0].radio.energyConsumer powerConsumption:vector ETV
attr interpolationmode sample-hold
attr source powerConsumptionChanged
attr title "Power consumption, vector"
vector 218 SensorNetwork.host[34].wlan[0].radio radioMode:vector ETV
attr interpolationmode sample-hold
attr source radioModeChanged
attr title "Radio mode, vector"
vector 219 SensorNetwork.host[34].wlan[0].radio.energyConsumer powerConsumption:vector ETV
attr interpolationmode sample-hold
attr source powerConsumptionChanged
attr title "Power consumption, vector"
vector 220 SensorNetwork.host[35].wlan[0].radio radioMode:vector ETV
attr interpolationmode sample-hold
attr source radioModeChanged
attr title "Radio mode, vector"
vector 221 SensorNetwork.host[35].wlan[0].radio.energyConsumer powerConsumption:vector ETV
attr interpolationmode sample-hold
attr source powerConsumptionChanged
attr title "Power consumption, vector"
vector 222 SensorNetwork.host[36].wlan[0].radio radioMode:vector ETV
attr interpolationmode sample-hold
attr source radioModeChanged
attr title "Radio mode, vector"
vector 223 SensorNetwork.host[36].wlan[0].radio.energyConsumer powerConsumption:vector ETV
attr interpolationmode sample-hold
attr source powerConsumptionChanged
attr title "Power consumption, vector"
vector 224 SensorNetwork.host[37].wlan[0].radio radioMode:vector ETV
attr interpolationmode sample-hold
attr source radioModeChanged
attr title "Radio mode, vector"
vector 225 SensorNetwork.host[37].wlan[0].radio.energyConsumer powerConsumption:vector ETV
attr interpolationmode sample-hold
attr source powerConsumptionChanged
attr title "Power consumption, vector"
vector 226 SensorNetwork.host[38].wlan[0].radio radioMode:vector ETV
attr interpolationmode sample-hold
attr source radioModeChanged
attr title "Radio mode, vector"
vector 227 SensorNetwork.host[38].wlan[0].radio.energyConsumer powerConsumption:vector ETV
attr interpolationmode sample-hold
attr source powerConsumptionChanged
attr title "Power consumption, vector"
vector 228 SensorNetwork.host[39].wlan[0].radio radioMode:vector ETV
attr interpolationmode sample-hold
attr source radioModeChanged
attr title "Radio mode, vector"
vector 229 SensorNetwork.host[39].wlan[0].radio.energyConsumer powerConsumption:vector ETV
attr interpolationmode sample-hold
attr source powerConsumptionChanged
attr title "Power consumption, vector"
vector 230 SensorNetwork.host[40].wlan[0].radio radioMode:vector ETV
attr interpolationmode sample-hold
attr source radioModeChanged
attr title "Radio mode, vector"
vector 231 SensorNetwork.host[40].wlan[0].radio.energyConsumer powerConsumption:vector ETV
attr interpolationmode sample-hold
attr source powerConsumptionChanged
attr title "Power consumption, vector"
vector 232 SensorNetwork.host[41].wlan[0].radio radioMode:vector ETV
attr interpolationmode sample-hold
attr source radioModeChanged
attr title "Radio mode, vector"
vector 233 SensorNetwork.host[41].wlan[0].radio.energyConsumer powerConsumption:vector ETV
attr interpolationmode sample-hold
attr source powerConsumptionChanged
attr title "Power consumption, vector"
vector 234 SensorNetwork.host[42].wlan[0].radio radioMode:vector ETV
attr interpolationmode sample-hold
attr source radioModeChanged
attr title "Radio mode, vector"
vector 235 SensorNetwork.host[42].wlan[0].radio.energyConsumer powerConsumption:vector ETV
attr interpolationmode sample-hold
attr source powerConsumptionChanged
attr title "Power consumption, vector"
vector 236 SensorNetwork.host[43].wlan[0].radio radioMode:vector ETV
attr interpolationmode sample-hold
attr source radioModeChanged
attr title "Radio mode, vector"
vector 237 SensorNetwork.host[43].wlan[0].radio.energyConsumer powerConsumption:vector ETV
attr interpolationmode sample-hold
attr source powerConsumptionChanged
attr title "Power consumption, vector"
vector 238 SensorNetwork.host[44].wlan[0].radio radioMode:vector ETV
attr interpolationmode sample-hold
attr source radioModeChanged
attr title "Radio mode, vector"
vector 239 SensorNetwork.host[44].wlan[0].radio.energyConsumer powerConsumption:vector ETV
attr interpolationmode sample-hold
attr source powerConsumptionChanged
attr title "Power consumption, vector"
vector 240 SensorNetwork.host[45].wlan[0].radio radioMode:vector ETV
attr interpolationmode sample-hold
attr source radioModeChanged
attr title "Radio mode, vector"
vector 241 SensorNetwork.host[45].wlan[0].radio.energyConsumer powerConsumption:vector ETV
attr interpolationmode sample-hold
attr source powerConsumptionChanged
attr title "Power consumption, vector"
vector 242 SensorNetwork.host[46].wlan[0].radio radioMode:vector ETV
attr interpolationmode sample-hold
attr source radioModeChanged
attr title "Radio mode, vector"
vector 243 SensorNetwork.host[46].wlan[0].radio.energyConsumer powerConsumption:vector ETV
attr interpolationmode sample-hold
attr source powerConsumptionChanged
attr title "Power consumption, vector"
vector 244 SensorNetwork.host[47].wlan[0].radio radioMode:vector ETV
attr interpolationmode sample-hold
attr source radioModeChanged
attr title "Radio mode, vector"
vector 245 SensorNetwork.host[47].wlan[0].radio.energyConsumer powerConsumption:vector ETV
attr interpolationmode sample-hold
attr source powerConsumptionChanged
attr title "Power consumption, vector"
vector 246 SensorNetwork.host[48].wlan[0].radio radioMode:vector ETV
attr interpolationmode sample-hold
attr source radioModeChanged
attr title "Radio mode, vector"
vector 247 SensorNetwork.host[48].wlan[0].radio.energyConsumer powerConsumption:vector ETV
attr interpolationmode sample-hold
attr source powerConsumptionChanged
attr title "Power consumption, vector"
vector 248 SensorNetwork.host[49].wlan[0].radio radioMode:vector ETV
attr interpolationmode sample-hold
attr source radioModeChanged
attr title "Radio mode, vector"
vector 249 SensorNetwork.host[49].wlan[0].radio.energyConsumer powerConsumption:vector ETV
attr interpolationmode sample-hold
attr source powerConsumptionChanged
attr title "Power consumption, vector"
vector 250 SensorNetwork.host[0].wlan[0].radio receptionState:vector ETV
attr interpolationmode sample-hold
attr source receptionStateChanged
attr title "Radio reception state, vector"
vector 251 SensorNetwork.host[1].wlan[0].radio receptionState:vector ETV
attr interpolationmode sample-hold
attr source receptionStateChanged
attr title "Radio reception state, vector"
vector 252 SensorNetwork.host[2].wlan[0].radio receptionState:vector ETV
attr interpolationmode sample-hold
attr source receptionStateChanged
attr title "Radio reception state, vector"
vector 253 SensorNetwork.host[3].wlan[0].radio receptionState:vector ETV
attr interpolationmode sample-hold
attr source receptionStateChanged
attr title "Radio reception state, vector"
vector 254 SensorNetwork.host[4].wlan[0].radio receptionState:vector ETV
attr interpolationmode sample-hold
attr source receptionStateChanged
attr title "Radio reception state, vector"
vector 255 SensorNetwork.host[5].wlan[0].radio receptionState:vector ETV
attr interpolationmode sample-hold
attr source receptionStateChanged
attr title "Radio reception state, vector"
vector 256 SensorNetwork.host[6].wlan[0].radio receptionState:vector ETV
attr interpolationmode sample-hold
attr source receptionStateChanged
attr title "Radio reception state, vector"
vector 257 SensorNetwork.host[7].wlan[0].radio receptionState:vector ETV
attr interpolationmode sample-hold
attr source receptionStateChanged
attr title "Radio reception state, vector"
vector 258 SensorNetwork.host[8].wlan[0].radio receptionState:vector ETV
attr interpolationmode sample-hold
attr source receptionStateChanged
attr title "Radio reception state, vector"
vector 259 SensorNetwork.host[9].wlan[0].radio receptionState:vector ETV
attr interpolationmode sample-hold
attr source receptionStateChanged
attr title "Radio reception state, vector"
vector 260 SensorNetwork.host[10].wlan[0].radio receptionState:vector ETV
attr interpolationmode sample-hold
attr source receptionStateChanged
attr title "Radio reception state, vector"
vector 261 SensorNetwork.host[11].wlan[0].radio receptionState:vector ETV
attr interpolationmode sample-hold
attr source receptionStateChanged
attr title "Radio reception state, vector"
vector 262 SensorNetwork.host[12].wlan[0].radio receptionState:vector ETV
attr interpolationmode sample-hold
attr source receptionStateChanged
attr title "Radio reception state, vector"
vector 263 SensorNetwork.host[13].wlan[0].radio receptionState:vector ETV
attr interpolationmode sample-hold
attr source receptionStateChanged
attr title "Radio reception state, vector"
vector 264 SensorNetwork.host[14].wlan[0].radio receptionState:vector ETV
attr interpolationmode sample-hold
attr source receptionStateChanged
attr title "Radio reception state, vector"
vector 265 SensorNetwork.host[15].wlan[0].radio receptionState:vector ETV
attr interpolationmode sample-hold
attr source receptionStateChanged
attr title "Radio reception state, vector"
vector 266 SensorNetwork.host[16].wlan[0].radio receptionState:vector ETV
attr interpolationmode sample-hold
attr source receptionStateChanged
attr title "Radio reception state, vector"
vector 267 SensorNetwork.host[17].wlan[0].radio receptionState:vector ETV
attr interpolationmode sample-hold
attr source receptionStateChanged
attr title "Radio reception state, vector"
vector 268 SensorNetwork.host[18].wlan[0].radio receptionState:vector ETV
attr interpolationmode sample-hold
attr source receptionStateChanged
attr title "Radio reception state, vector"
vector 269 SensorNetwork.host[19].wlan[0].radio receptionState:vector ETV
attr interpolationmode sample-hold
attr source receptionStateChanged
attr title "Radio reception state, vector"
vector 270 SensorNetwork.host[20].wlan[0].radio receptionState:vector ETV
attr interpolationmode sample-hold
attr source receptionStateChanged
attr title "Radio reception state, vector"
vector 271 SensorNetwork.host[21].wlan[0].radio receptionState:vector ETV
attr interpolationmode sample-hold
attr source receptionStateChanged
attr title "Radio reception state, vector"
vector 272 SensorNetwork.host[22].wlan[0].radio receptionState:vector ETV
attr interpolationmode sample-hold
attr source receptionStateChanged
attr title "Radio reception state, vector"
vector 273 SensorNetwork.host[23].wlan[0].radio receptionState:vector ETV
attr interpolationmode sample-hold
attr source receptionStateChanged
attr title "Radio reception state, vector"
vector 274 SensorNetwork.host[24].wlan[0].radio receptionState:vector ETV
attr interpolationmode sample-hold
attr source receptionStateChanged
attr title "Radio reception state, vector"
vector 275 SensorNetwork.host[25].wlan[0].radio receptionState:vector ETV
attr interpolationmode sample-hold
attr source receptionStateChanged
attr title "Radio reception state, vector"
vector 276 SensorNetwork.host[26].wlan[0].radio receptionState:vector ETV
attr interpolationmode sample-hold
attr source receptionStateChanged
attr title "Radio reception state, vector"
vector 277 SensorNetwork.host[27].wlan[0].radio receptionState:vector ETV
attr interpolationmode sample-hold
attr source receptionStateChanged
attr title "Radio reception state, vector"
vector 278 SensorNetwork.host[28].wlan[0].radio receptionState:vector ETV
attr interpolationmode sample-hold
attr source receptionStateChanged
attr title "Radio reception state, vector"
vector 279 SensorNetwork.host[29].wlan[0].radio receptionState:vector ETV
attr interpolationmode sample-hold
attr source receptionStateChanged
attr title "Radio reception state, vector"
vector 280 SensorNetwork.host[30].wlan[0].radio receptionState:vector ETV
attr interpolationmode sample-hold
attr source receptionStateChanged
attr title "Radio reception state, vector"
vector 281 SensorNetwork.host[31].wlan[0].radio receptionState:vector ETV
attr interpolationmode sample-hold
attr source receptionStateChanged
attr title "Radio reception state, vector"
vector 282 SensorNetwork.host[32].wlan[0].radio receptionState:vector ETV
attr interpolationmode sample-hold
attr source receptionStateChanged
attr title "Radio reception state, vector"
vector 283 SensorNetwork.host[33].wlan[0].radio receptionState:vector ETV
attr interpolationmode sample-hold
attr source receptionStateChanged
attr title "Radio reception state, vector"
vector 284 SensorNetwork.host[34].wlan[0].radio receptionState:vector ETV
attr interpolationmode sample-hold
attr source receptionStateChanged
attr title "Radio reception state, vector"
vector 285 SensorNetwork.host[35].wlan[0].radio receptionState:vector ETV
attr interpolationmode sample-hold
attr source receptionStateChanged
attr title "Radio reception state, vector"
vector 286 SensorNetwork.host[36].wlan[0].radio receptionState:vector ETV
attr interpolationmode sample-hold
attr source receptionStateChanged
attr title "Radio reception state, vector"
vector 287 SensorNetwork.host[37].wlan[0].radio receptionState:vector ETV
attr interpolationmode sample-hold
attr source receptionStateChanged
attr title "Radio reception state, vector"
vector 288 SensorNetwork.host[38].wlan[0].radio receptionState:vector ETV
attr interpolationmode sample-hold
attr source receptionStateChanged
attr title "Radio reception state, vector"
vector 289 SensorNetwork.host[39].wlan[0].radio receptionState:vector ETV
attr interpolationmode sample-hold
attr source receptionStateChanged
attr title "Radio reception state, vector"
vector 290 SensorNetwork.host[40].wlan[0].radio receptionState:vector ETV
attr interpolationmode sample-hold
attr source receptionStateChanged
attr title "Radio reception state, vector"
vector 291 SensorNetwork.host[41].wlan[0].radio receptionState:vector ETV
attr interpolationmode sample-hold
attr source receptionStateChanged
attr title "Radio reception state, vector"
vector 292 SensorNetwork.host[42].wlan[0].radio receptionState:vector ETV
attr interpolationmode sample-hold
attr source receptionStateChanged
attr title "Radio reception state, vector"
vector 293 SensorNetwork.host[43].wlan[0].radio receptionState:vector ETV
attr interpolationmode sample-hold
attr source receptionStateChanged
attr title "Radio reception state, vector"
vector 294 SensorNetwork.host[44].wlan[0].radio receptionState:vector ETV
attr interpolationmode sample-hold
attr source receptionStateChanged
attr title "Radio reception state, vector"
vector 295 SensorNetwork.host[45].wlan[0].radio receptionState:vector ETV
attr interpolationmode sample-hold
attr source receptionStateChanged
attr title "Radio reception state, vector"
vector 296 SensorNetwork.host[46].wlan[0].radio receptionState:vector ETV
attr interpolationmode sample-hold
attr source receptionStateChanged
attr title "Radio reception state, vector"
vector 297 SensorNetwork.host[47].wlan[0].radio receptionState:vector ETV
attr interpolationmode sample-hold
attr source receptionStateChanged
attr title "Radio reception state, vector"
vector 298 SensorNetwork.host[48].wlan[0].radio receptionState:vector ETV
attr interpolationmode sample-hold
attr source receptionStateChanged
attr title "Radio reception state, vector"
vector 299 SensorNetwork.host[49].wlan[0].radio receptionState:vector ETV
attr interpolationmode sample-hold
attr source receptionStateChanged
attr title "Radio reception state, vector"
vector 300 SensorNetwork.host[9].wlan[0].queue rcvdPk:vector(packetBytes) ETV
attr interpolationmode none
attr title "received packets, vector(packetBytes)"
vector 301 SensorNetwork.host[9].wlan[0].queue queueingTime:vector ETV
attr interpolationmode none
attr title "queueing time, vector"
vector 302 SensorNetwork.host[9].wlan[0].mac rcvdPkFromHL:vector(packetBytes) ETV
attr interpolationmode none
attr source packetReceivedFromUpper
attr title "packets received from higher layer, vector(packetBytes)"
vector 303 SensorNetwork.host[9].wlan[0].radio transmissionState:vector ETV
attr interpolationmode sample-hold
attr source transmissionStateChanged
attr title "Radio transmission state, vector"
vector 304 SensorNetwork.host[9].wlan[0].mac sentDownPk:vector(packetBytes) ETV
attr interpolationmode none
attr source packetSentToLower
attr title "packets sent to lower layer, vector(packetBytes)"
vector 305 SensorNetwork.host[0].wlan[0].mac rcvdPkFromLL:vector(packetBytes) ETV
attr interpolationmode none
attr source packetReceivedFromLower
attr title "packets received from lower layer, vector(packetBytes)"
vector 306 SensorNetwork.host[0].wlan[0].mac passedUpPk:vector(packetBytes) ETV
attr interpolationmode none
attr source packetSentToUpper
attr title "packets passed to higher layer, vector(packetBytes)"
vector 307 SensorNetwork.host[21].wlan[0].mac rcvdPkFromLL:vector(packetBytes) ETV
attr interpolationmode none
attr source packetReceivedFromLower
attr title "packets received from lower layer, vector(packetBytes)"
vector 308 SensorNetwork.host[21].wlan[0].mac passedUpPk:vector(packetBytes) ETV
attr interpolationmode none
attr source packetSentToUpper
attr title "packets passed to higher layer, vector(packetBytes)"
vector 309 SensorNetwork.host[20].wlan[0].mac rcvdPkFromLL:vector(packetBytes) ETV
attr interpolationmode none
attr source packetReceivedFromLower
attr title "packets received from lower layer, vector(packetBytes)"
vector 310 SensorNetwork.host[20].wlan[0].mac passedUpPk:vector(packetBytes) ETV
attr interpolationmode none
attr source packetSentToUpper
attr title "packets passed to higher layer, vector(packetBytes)"
vector 311 SensorNetwork.host[7].wlan[0].mac rcvdPkFromLL:vector(packetBytes) ETV
attr interpolationmode none
attr source packetReceivedFromLower
attr title "packets received from lower layer, vector(packetBytes)"
vector 312 SensorNetwork.host[7].wlan[0].mac passedUpPk:vector(packetBytes) ETV
attr interpolationmode none
attr source packetSentToUpper
attr title "packets passed to higher layer, vector(packetBytes)"
vector 313 SensorNetwork.host[18].wlan[0].queue rcvdPk:vector(packetBytes) ETV
attr interpolationmode none
attr title "received packets, vector(packetBytes)"
vector 314 SensorNetwork.host[18].wlan[0].queue queueingTime:vector ETV
attr interpolationmode none
attr title "queueing time, vector"
vector 315 SensorNetwork.host[18].wlan[0].mac rcvdPkFromHL:vector(packetBytes) ETV
attr interpolationmode none
attr source packetReceivedFromUpper
attr title "packets received from higher layer, vector(packetBytes)"
vector 316 SensorNetwork.host[18].wlan[0].radio transmissionState:vector ETV
attr interpolationmode sample-hold
attr source transmissionStateChanged
attr title "Radio transmission state, vector"
vector 317 SensorNetwork.host[18].wlan[0].mac sentDownPk:vector(packetBytes) ETV
attr interpolationmode none
attr source packetSentToLower
attr title "packets sent to lower layer, vector(packetBytes)"
vector 318 SensorNetwork.host[31].wlan[0].mac rcvdPkFromLL:vector(packetBytes) ETV
attr interpolationmode none
attr source packetReceivedFromLower
attr title "packets received from lower layer, vector(packetBytes)"
vector 319 SensorNetwork.host[31].wlan[0].mac passedUpPk:vector(packetBytes) ETV
attr interpolationmode none
attr source packetSentToUpper
attr title "packets passed to higher layer, vector(packetBytes)"
vector 320 SensorNetwork.host[43].wlan[0].mac rcvdPkFromLL:vector(packetBytes) ETV
attr interpolationmode none
attr source packetReceivedFromLower
attr title "packets received from lower layer, vector(packetBytes)"
vector 321 SensorNetwork.host[43].wlan[0].mac passedUpPk:vector(packetBytes) ETV
attr interpolationmode none
attr source packetSentToUpper
attr title "packets passed to higher layer, vector(packetBytes)"
vector 322 SensorNetwork.host[35].wlan[0].mac rcvdPkFromLL:vector(packetBytes) ETV
attr interpolationmode none
attr source packetReceivedFromLower
attr title "packets received from lower layer, vector(packetBytes)"
vector 323 SensorNetwork.host[35].wlan[0].mac passedUpPk:vector(packetBytes) ETV
attr interpolationmode none
attr source packetSentToUpper
attr title "packets passed to higher layer, vector(packetBytes)"
vector 324 SensorNetwork.host[2].wlan[0].mac rcvdPkFromLL:vector(packetBytes) ETV
attr interpolationmode none
attr source packetReceivedFromLower
attr title "packets received from lower layer, vector(packetBytes)"
vector 325 SensorNetwork.host[2].wlan[0].mac passedUpPk:vector(packetBytes) ETV
attr interpolationmode none
attr source packetSentToUpper
attr title "packets passed to higher layer, vector(packetBytes)"
vector 326 SensorNetwork.host[44].wlan[0].queue rcvdPk:vector(packetBytes) ETV
attr interpolationmode none
attr title "received packets, vector(packetBytes)"
vector 327 SensorNetwork.host[44].wlan[0].queue queueingTime:vector ETV
attr interpolationmode none
attr title "queueing time, vector"
vector 328 SensorNetwork.host[44].wlan[0].mac rcvdPkFromHL:vector(packetBytes) ETV
attr interpolationmode none
attr source packetReceivedFromUpper
attr title "packets received from higher layer, vector(packetBytes)"
vector 329 SensorNetwork.host[44].wlan[0].radio transmissionState:vector ETV
attr interpolationmode sample-hold
attr source transmissionStateChanged
attr title "Radio transmission state, vector"
vector 330 SensorNetwork.host[44].wlan[0].mac sentDownPk:vector(packetBytes) ETV
attr interpolationmode none
attr source packetSentToLower
attr title "packets sent to lower layer, vector(packetBytes)"
vector 331 SensorNetwork.host[3].wlan[0].mac rcvdPkFromLL:vector(packetBytes) ETV
attr interpolationmode none
attr source packetReceivedFromLower
attr title "packets received from lower layer, vector(packetBytes)"
vector 332 SensorNetwork.host[3].wlan[0].mac passedUpPk:vector(packetBytes) ETV
attr interpolationmode none
attr source packetSentToUpper
attr title "packets passed to higher layer, vector(packetBytes)"
vector 333 SensorNetwork.host[30].wlan[0].mac rcvdPkFromLL:vector(packetBytes) ETV
attr interpolationmode none
attr source packetReceivedFromLower
attr title "packets received from lower layer, vector(packetBytes)"
vector 334 SensorNetwork.host[30].wlan[0].mac passedUpPk:vector(packetBytes) ETV
attr interpolationmode none
attr source packetSentToUpper
attr title "packets passed to higher layer, vector(packetBytes)"
vector 335 SensorNetwork.host[17].wlan[0].mac rcvdPkFromLL:vector(packetBytes) ETV
attr interpolationmode none
attr source packetReceivedFromLower
attr title "packets received from lower layer, vector(packetBytes)"
vector 336 SensorNetwork.host[17].wlan[0].mac passedUpPk:vector(packetBytes) ETV
attr interpolationmode none
attr source packetSentToUpper
attr title "packets passed to higher layer, vector(packetBytes)"
vector 337 SensorNetwork.host[42].wlan[0].queue rcvdPk:vector(packetBytes) ETV
attr interpolationmode none
attr title "received packets, vector(packetBytes)"
vector 338 SensorNetwork.host[42].wlan[0].queue queueingTime:vector ETV
attr interpolationmode none
attr title "queueing time, vector"
vector 339 SensorNetwork.host[42].wlan[0].mac rcvdPkFromHL:vector(packetBytes) ETV
attr interpolationmode none
attr source packetReceivedFromUpper
attr title "packets received from higher layer, vector(packetBytes)"
vector 340 SensorNetwork.host[42].wlan[0].radio transmissionState:vector ETV
attr interpolationmode sample-hold
attr source transmissionStateChanged
attr title "Radio transmission state, vector"
vector 341 SensorNetwork.host[42].wlan[0].mac sentDownPk:vector(packetBytes) ETV
attr interpolationmode none
attr source packetSentToLower
attr title "packets sent to lower layer, vector(packetBytes)"
vector 342 SensorNetwork.host[28].wlan[0].queue rcvdPk:vector(packetBytes) ETV
attr interpolationmode none
attr title "received packets, vector(packetBytes)"
vector 343 SensorNetwork.host[28].wlan[0].queue queueingTime:vector ETV
attr interpolationmode none
attr title "queueing time, vector"
vector 344 SensorNetwork.host[28].wlan[0].mac rcvdPkFromHL:vector(packetBytes) ETV
attr interpolationmode none
attr source packetReceivedFromUpper
attr title "packets received from higher layer, vector(packetBytes)"
vector 345 SensorNetwork.host[28].wlan[0].radio transmissionState:vector ETV
attr interpolationmode sample-hold
attr source transmissionStateChanged
attr title "Radio transmission state, vector"
vector 346 SensorNetwork.host[28].wlan[0].mac sentDownPk:vector(packetBytes) ETV
attr interpolationmode none
attr source packetSentToLower
attr title "packets sent to lower layer, vector(packetBytes)"
vector 347 SensorNetwork.host[36].wlan[0].mac rcvdPkFromLL:vector(packetBytes) ETV
attr interpolationmode none
attr source packetReceivedFromLower
attr title "packets received from lower layer, vector(packetBytes)"
vector 348 SensorNetwork.host[36].wlan[0].mac passedUpPk:vector(packetBytes) ETV
attr interpolationmode none
attr source packetSentToUpper
attr title "packets passed to higher layer, vector(packetBytes)"
vector 349 SensorNetwork.host[11].wlan[0].mac rcvdPkFromLL:vector(packetBytes) ETV
attr interpolationmode none
attr source packetReceivedFromLower
attr title "packets received from lower layer, vector(packetBytes)"
vector 350 SensorNetwork.host[11].wlan[0].mac passedUpPk:vector(packetBytes) ETV
attr interpolationmode none
attr source packetSentToUpper
attr title "packets passed to higher layer, vector(packetBytes)"
vector 351 SensorNetwork.host[36].wlan[0].queue rcvdPk:vector(packetBytes) ETV
attr interpolationmode none
attr title "received packets, vector(packetBytes)"
vector 352 SensorNetwork.host[36].wlan[0].queue queueingTime:vector ETV
attr interpolationmode none
attr title "queueing time, vector"
vector 353 SensorNetwork.host[36].wlan[0].mac rcvdPkFromHL:vector(packetBytes) ETV
attr interpolationmode none
attr source packetReceivedFromUpper
attr title "packets received from higher layer, vector(packetBytes)"
vector 354 SensorNetwork.host[36].wlan[0].radio transmissionState:vector ETV
attr interpolationmode sample-hold
attr source transmissionStateChanged
attr title "Radio transmission state, vector"
vector 355 SensorNetwork.host[36].wlan[0].mac sentDownPk:vector(packetBytes) ETV
attr interpolationmode none
attr source packetSentToLower
attr title "packets sent to lower layer, vector(packetBytes)"
vector 356 SensorNetwork.host[1].wlan[0].mac rcvdPkFromLL:vector(packetBytes) ETV
attr interpolationmode none
attr source packetReceivedFromLower
attr title "packets received from lower layer, vector(packetBytes)"
vector 357 SensorNetwork.host[1].wlan[0].mac passedUpPk:vector(packetBytes) ETV
attr interpolationmode none
attr source packetSentToUpper
attr title "packets passed to higher layer, vector(packetBytes)"
vector 358 SensorNetwork.host[28].wlan[0].mac rcvdPkFromLL:vector(packetBytes) ETV
attr interpolationmode none
attr source packetReceivedFromLower
attr title "packets received from lower layer, vector(packetBytes)"
vector 359 SensorNetwork.host[28].wlan[0].mac passedUpPk:vector(packetBytes) ETV
attr interpolationmode none
attr source packetSentToUpper
attr title "packets passed to higher layer, vector(packetBytes)"
vector 360 SensorNetwork.host[22].wlan[0].queue rcvdPk:vector(packetBytes) ETV
attr interpolationmode none
attr title "received packets, vector(packetBytes)"
vector 361 SensorNetwork.host[22].wlan[0].queue queueingTime:vector ETV
attr interpolationmode none
attr title "queueing time, vector"
vector 362 SensorNetwork.host[22].wlan[0].mac rcvdPkFromHL:vector(packetBytes) ETV
attr interpolationmode none
attr source packetReceivedFromUpper
attr title "packets received from higher layer, vector(packetBytes)"
vector 363 SensorNetwork.host[22].wlan[0].radio transmissionState:vector ETV
attr interpolationmode sample-hold
attr source transmissionStateChanged
attr title "Radio transmission state, vector"
vector 364 SensorNetwork.host[22].wlan[0].mac sentDownPk:vector(packetBytes) ETV
attr interpolationmode none
attr source packetSentToLower
attr title "packets sent to lower layer, vector(packetBytes)"
vector 365 SensorNetwork.host[38].wlan[0].mac rcvdPkFromLL:vector(packetBytes) ETV
attr interpolationmode none
attr source packetReceivedFromLower
attr title "packets received from lower layer, vector(packetBytes)"
vector 366 SensorNetwork.host[38].wlan[0].mac passedUpPk:vector(packetBytes) ETV
attr interpolationmode none
attr source packetSentToUpper
attr title "packets passed to higher layer, vector(packetBytes)"
vector 367 SensorNetwork.host[24].wlan[0].mac rcvdPkFromLL:vector(packetBytes) ETV
attr interpolationmode none
attr source packetReceivedFromLower
attr title "packets received from lower layer, vector(packetBytes)"
vector 368 SensorNetwork.host[24].wlan[0].mac passedUpPk:vector(packetBytes) ETV
attr interpolationmode none
attr source packetSentToUpper
attr title "packets passed to higher layer, vector(packetBytes)"
vector 369 SensorNetwork.host[15].wlan[0].mac rcvdPkFromLL:vector(packetBytes) ETV
attr interpolationmode none
attr source packetReceivedFromLower
attr title "packets received from lower layer, vector(packetBytes)"
vector 370 SensorNetwork.host[15].wlan[0].mac passedUpPk:vector(packetBytes) ETV
attr interpolationmode none
attr source packetSentToUpper
attr title "packets passed to higher layer, vector(packetBytes)"
vector 371 SensorNetwork.host[40].wlan[0].mac rcvdPkFromLL:vector(packetBytes) ETV
attr interpolationmode none
attr source packetReceivedFromLower
attr title "packets received from lower layer, vector(packetBytes)"
vector 372 SensorNetwork.host[40].wlan[0].mac passedUpPk:vector(packetBytes) ETV
attr interpolationmode none
attr source packetSentToUpper
attr title "packets passed to higher layer, vector(packetBytes)"
vector 373 SensorNetwork.host[48].wlan[0].mac rcvdPkFromLL:vector(packetBytes) ETV
attr interpolationmode none
attr source packetReceivedFromLower
attr title "packets received from lower layer, vector(packetBytes)"
vector 374 SensorNetwork.host[48].wlan[0].mac passedUpPk:vector(packetBytes) ETV
attr interpolationmode none
attr source packetSentToUpper
attr title "packets passed to higher layer, vector(packetBytes)"
vector 375 SensorNetwork.host[38].wlan[0].queue rcvdPk:vector(packetBytes) ETV
attr interpolationmode none
attr title "received packets, vector(packetBytes)"
vector 376 SensorNetwork.host[38].wlan[0].queue queueingTime:vector ETV
attr interpolationmode none
attr title "queueing time, vector"
vector 377 SensorNetwork.host[38].wlan[0].mac rcvdPkFromHL:vector(packetBytes) ETV
attr interpolationmode none
attr source packetReceivedFromUpper
attr title "packets received from higher layer, vector(packetBytes)"
vector 378 SensorNetwork.host[38].wlan[0].radio transmissionState:vector ETV
attr interpolationmode sample-hold
attr source transmissionStateChanged
attr title "Radio transmission state, vector"
vector 379 SensorNetwork.host[38].wlan[0].mac sentDownPk:vector(packetBytes) ETV
attr interpolationmode none
attr source packetSentToLower
attr title "packets sent to lower layer, vector(packetBytes)"
vector 380 SensorNetwork.host[22].wlan[0].mac rcvdPkFromLL:vector(packetBytes) ETV
attr interpolationmode none
attr source packetReceivedFromLower
attr title "packets received from lower layer, vector(packetBytes)"
vector 381 SensorNetwork.host[22].wlan[0].mac passedUpPk:vector(packetBytes) ETV
attr interpolationmode none
attr source packetSentToUpper
attr title "packets passed to higher layer, vector(packetBytes)"
vector 382 SensorNetwork.host[1].wlan[0].queue rcvdPk:vector(packetBytes) ETV
attr interpolationmode none
attr title "received packets, vector(packetBytes)"
vector 383 SensorNetwork.host[1].wlan[0].queue queueingTime:vector ETV
attr interpolationmode none
attr title "queueing time, vector"
vector 384 SensorNetwork.host[1].wlan[0].mac rcvdPkFromHL:vector(packetBytes) ETV
attr interpolationmode none
attr source packetReceivedFromUpper
attr title "packets received from higher layer, vector(packetBytes)"
vector 385 SensorNetwork.host[1].wlan[0].radio transmissionState:vector ETV
attr interpolationmode sample-hold
attr source transmissionStateChanged
attr title "Radio transmission state, vector"
vector 386 SensorNetwork.host[1].wlan[0].mac sentDownPk:vector(packetBytes) ETV
attr interpolationmode none
attr source packetSentToLower
attr title "packets sent to lower layer, vector(packetBytes)"
vector 387 SensorNetwork.host[35].wlan[0].queue rcvdPk:vector(packetBytes) ETV
attr interpolationmode none
attr title "received packets, vector(packetBytes)"
vector 388 SensorNetwork.host[35].wlan[0].queue queueingTime:vector ETV
attr interpolationmode none
attr title "queueing time, vector"
vector 389 SensorNetwork.host[35].wlan[0].mac rcvdPkFromHL:vector(packetBytes) ETV
attr interpolationmode none
attr source packetReceivedFromUpper
attr title "packets received from higher layer, vector(packetBytes)"
vector 390 SensorNetwork.host[35].wlan[0].radio transmissionState:vector ETV
attr interpolationmode sample-hold
attr source transmissionStateChanged
attr title "Radio transmission state, vector"
vector 391 SensorNetwork.host[35].wlan[0].mac sentDownPk:vector(packetBytes) ETV
attr interpolationmode none
attr source packetSentToLower
attr title "packets sent to lower layer, vector(packetBytes)"
vector 392 SensorNetwork.host[18].wlan[0].mac rcvdPkFromLL:vector(packetBytes) ETV
attr interpolationmode none
attr source packetReceivedFromLower
attr title "packets received from lower layer, vector(packetBytes)"
vector 393 SensorNetwork.host[18].wlan[0].mac passedUpPk:vector(packetBytes) ETV
attr interpolationmode none
attr source packetSentToUpper
attr title "packets passed to higher layer, vector(packetBytes)"
vector 394 SensorNetwork.host[30].wlan[0].queue rcvdPk:vector(packetBytes) ETV
attr interpolationmode none
attr title "received packets, vector(packetBytes)"
vector 395 SensorNetwork.host[30].wlan[0].queue queueingTime:vector ETV
attr interpolationmode none
attr title "queueing time, vector"
vector 396 SensorNetwork.host[30].wlan[0].mac rcvdPkFromHL:vector(packetBytes) ETV
attr interpolationmode none
attr source packetReceivedFromUpper
attr title "packets received from higher layer, vector(packetBytes)"
vector 397 SensorNetwork.host[30].wlan[0].radio transmissionState:vector ETV
attr interpolationmode sample-hold
attr source transmissionStateChanged
attr title "Radio transmission state, vector"
vector 398 SensorNetwork.host[30].wlan[0].mac sentDownPk:vector(packetBytes) ETV
attr interpolationmode none
attr source packetSentToLower
attr title "packets sent to lower layer, vector(packetBytes)"
vector 399 SensorNetwork.host[44].wlan[0].mac rcvdPkFromLL:vector(packetBytes) ETV
attr interpolationmode none
attr source packetReceivedFromLower
attr title "packets received from lower layer, vector(packetBytes)"
vector 400 SensorNetwork.host[44].wlan[0].mac passedUpPk:vector(packetBytes) ETV
attr interpolationmode none
attr source packetSentToUpper
attr title "packets passed to higher layer, vector(packetBytes)"
vector 401 SensorNetwork.host[42].wlan[0].mac rcvdPkFromLL:vector(packetBytes) ETV
attr interpolationmode none
attr source packetReceivedFromLower
attr title "packets received from lower layer, vector(packetBytes)"
vector 402 SensorNetwork.host[42].wlan[0].mac passedUpPk:vector(packetBytes) ETV
attr interpolationmode none
attr source packetSentToUpper
attr title "packets passed to higher layer, vector(packetBytes)"
vector 403 SensorNetwork.host[39].wlan[0].queue rcvdPk:vector(packetBytes) ETV
attr interpolationmode none
attr title "received packets, vector(packetBytes)"
vector 404 SensorNetwork.host[39].wlan[0].queue queueingTime:vector ETV
attr interpolationmode none
attr title "queueing time, vector"
vector 405 SensorNetwork.host[39].wlan[0].mac rcvdPkFromHL:vector(packetBytes) ETV
attr interpolationmode none
attr source packetReceivedFromUpper
attr title "packets received from higher layer, vector(packetBytes)"
vector 406 SensorNetwork.host[39].wlan[0].radio transmissionState:vector ETV
attr interpolationmode sample-hold
attr source transmissionStateChanged
attr title "Radio transmission state, vector"
vector 407 SensorNetwork.host[39].wlan[0].mac sentDownPk:vector(packetBytes) ETV
attr interpolationmode none
attr source packetSentToLower
attr title "packets sent to lower layer, vector(packetBytes)"
vector 408 SensorNetwork.host[37].wlan[0].mac rcvdPkFromLL:vector(packetBytes) ETV
attr interpolationmode none
attr source packetReceivedFromLower
attr title "packets received from lower layer, vector(packetBytes)"
vector 409 SensorNetwork.host[37].wlan[0].mac passedUpPk:vector(packetBytes) ETV
attr interpolationmode none
attr source packetSentToUpper
attr title "packets passed to higher layer, vector(packetBytes)"
vector 410 SensorNetwork.host[29].wlan[0].queue rcvdPk:vector(packetBytes) ETV
attr interpolationmode none
attr title "received packets, vector(packetBytes)"
vector 411 SensorNetwork.host[29].wlan[0].queue queueingTime:vector ETV
attr interpolationmode none
attr title "queueing time, vector"
vector 412 SensorNetwork.host[29].wlan[0].mac rcvdPkFromHL:vector(packetBytes) ETV
attr interpolationmode none
attr source packetReceivedFromUpper
attr title "packets received from higher layer, vector(packetBytes)"
vector 413 SensorNetwork.host[29].wlan[0].radio transmissionState:vector ETV
attr interpolationmode sample-hold
attr source transmissionStateChanged
attr title "Radio transmission state, vector"
vector 414 SensorNetwork.host[29].wlan[0].mac sentDownPk:vector(packetBytes) ETV
attr interpolationmode none
attr source packetSentToLower
attr title "packets sent to lower layer, vector(packetBytes)"
vector 415 SensorNetwork.host[16].wlan[0].mac rcvdPkFromLL:vector(packetBytes) ETV
attr interpolationmode none
attr source packetReceivedFromLower
attr title "packets received from lower layer, vector(packetBytes)"
vector 416 SensorNetwork.host[16].wlan[0].mac passedUpPk:vector(packetBytes) ETV
attr interpolationmode none
attr source packetSentToUpper
attr title "packets passed to higher layer, vector(packetBytes)"
vector 417 SensorNetwork.host[27].wlan[0].mac rcvdPkFromLL:vector(packetBytes) ETV
attr interpolationmode none
attr source packetReceivedFromLower
attr title "packets received from lower layer, vector(packetBytes)"
vector 418 SensorNetwork.host[27].wlan[0].mac passedUpPk:vector(packetBytes) ETV
attr interpolationmode none
attr source packetSentToUpper
attr title "packets passed to higher layer, vector(packetBytes)"
vector 419 SensorNetwork.host[41].wlan[0].mac rcvdPkFromLL:vector(packetBytes) ETV
attr interpolationmode none
attr source packetReceivedFromLower
attr title "packets received from lower layer, vector(packetBytes)"
[...]
387	1879352 542 2862 117054 3.334759781235 63.360435843465 19 28 28 532 14896
388	1879894 523 2862 117054 3.334759781235 63.360435843465 19 0 0 0 0
389	1880417 542 2863 117055 3.334759781235 63.360435843465 19 28 28 532 14896
390	1880959 2092 2863 117106 3.334759781235 63.360659843465 76 0 2 76 114
391	1883051 542 2863 117055 3.334759781235 63.360435843465 19 28 28 532 14896
392	1883593 1469 2920 119550 3.334984460031 64.697541613893 51 28 28 1428 39984
393	1885062 1469 2920 119550 3.334984460031 64.697541613893 51 28 28 1428 39984
394	1886531 343 2978 75705 3.339392832112 40.072713985344 12 28 28 336 9408
395	1886874 331 2978 75705 3.339392832112 40.072713985344 12 0 0 0 0
396	1887205 343 2979 75706 3.339392832112 40.072713985344 12 28 28 336 9408
397	1887548 1324 2979 75757 3.339392832112 40.072937985344 48 0 2 48 72
398	1888872 343 2979 75706 3.339392832112 40.072713985344 12 28 28 336 9408
399	1889215 1447 3040 119319 3.339617691712 64.402055305225 50 28 28 1400 39200
400	1890662 1447 3040 119319 3.339617691712 64.402055305225 50 28 28 1400 39200
401	1892109 254 3044 42537 3.33961778775 22.927143473832 9 28 28 252 7056
402	1892363 254 3044 42537 3.33961778775 22.927143473832 9 28 28 252 7056
403	1892617 551 3147 119871 3.409233066267 64.775428259073 19 28 28 532 14896
404	1893168 532 3147 119871 3.409233066267 64.775428259073 19 0 0 0 0
405	1893700 551 3148 119872 3.409233066267 64.775428259073 19 28 28 532 14896
406	1894251 2128 3148 119923 3.409233066267 64.775652259073 76 0 2 76 114
407	1896379 551 3148 119872 3.409233066267 64.775428259073 19 28 28 532 14896
408	1896930 1076 3201 119941 3.409457892418 64.775653204661 37 28 28 1036 29008
409	1898006 1076 3201 119941 3.409457892418 64.775653204661 37 28 28 1036 29008
410	1899082 503 3255 114520 3.43357598199 61.80436767582 18 28 28 504 14112
411	1899585 485 3255 114520 3.43357598199 61.80436767582 18 0 0 0 0
412	1900070 503 3256 114521 3.43357598199 61.80436767582 18 28 28 504 14112
413	1900573 1940 3256 114572 3.43357598199 61.80459167582 72 0 2 72 108
414	1902513 503 3256 114521 3.43357598199 61.80436767582 18 28 28 504 14112
415	1903016 1571 3309 119813 3.433800181702 64.771079904789 54 28 28 1512 42336
416	1904587 1571 3309 119813 3.433800181702 64.771079904789 54 28 28 1512 42336
417	1906158 1448 3313 118310 3.433800355875 63.788986378762 50 28 28 1400 39200
418	1907606 1448 3313 118310 3.433800355875 63.788986378762 50 28 28 1400 39200
419	1909054 1151 3317 119040 3.433800851368 64.305878561657 40 28 28 1120 31360
420	1910205 1151 3317 119040 3.433800851368 64.305878561657 40 28 28 1120 31360
421	1911356 521 3368 114631 3.436557472097 61.858034497746 18 28 28 504 14112
422	1911877 503 3368 114631 3.436557472097 61.858034497746 18 0 0 0 0
423	1912380 521 3369 114632 3.436557472097 61.858034497746 18 28 28 504 14112
424	1912901 2012 3369 114683 3.436557472097 61.858258497746 72 0 2 72 108
425	1914913 521 3369 114632 3.436557472097 61.858034497746 18 28 28 504 14112
426	1915434 989 3422 117287 3.436781998736 63.479467931788 34 28 28 952 26656
427	1916423 989 3422 117287 3.436781998736 63.479467931788 34 28 28 952 26656
428	1917412 1875 3426 120559 3.436782192159 65.103195764749 65 28 28 1820 50960
429	1919287 1875 3426 120559 3.436782192159 65.103195764749 65 28 28 1820 50960
430	1921162 519 3530 116576 3.503962664348 63.071327958264 18 28 28 504 14112
431	1921681 501 3530 116576 3.503962664348 63.071327958264 18 0 0 0 0
432	1922182 519 3531 116577 3.503962664348 63.071327958264 18 28 28 504 14112
433	1922701 2004 3531 116628 3.503962664348 63.071551958264 72 0 2 72 108
434	1924705 519 3531 116577 3.503962664348 63.071327958264 18 28 28 504 14112
435	1925224 2231 3584 118663 3.504186960713 64.201504215918 77 28 28 2156 60368
436	1927455 2231 3584 118663 3.504186960713 64.201504215918 77 28 28 2156 60368
437	1929686 1816 3588 119175 3.504187617483 64.394291620143 63 28 28 1764 49392
438	1931502 1816 3588 119175 3.504187617483 64.394291620143 63 28 28 1764 49392
439	1933318 55 3641 11196 3.521517370604 7.043034741208 2 28 28 56 1568
440	1933373 53 3641 11196 3.521517370604 7.043034741208 2 0 0 0 0
441	1933426 55 3642 11197 3.521517370604 7.043034741208 2 28 28 56 1568
442	1933481 212 3642 11248 3.521517370604 7.043258741208 8 0 2 8 12
443	1933693 55 3642 11197 3.521517370604 7.043034741208 2 28 28 56 1568
444	1933748 1935 3695 119700 3.521741932309 64.700967226666 67 28 28 1876 52528
445	1935683 1935 3695 119700 3.521741932309 64.700967226666 67 28 28 1876 52528
446	1937618 1866 3699 119825 3.521742139593 64.771080362366 65 28 28 1820 50960
447	1939484 1866 3699 119825 3.521742139593 64.771080362366 65 28 28 1820 50960
448	1941350 521 3752 118252 3.543820110601 63.788761990818 18 28 28 504 14112
449	1941871 503 3752 118252 3.543820110601 63.788761990818 18 0 0 0 0
450	1942374 521 3753 118253 3.543820110601 63.788761990818 18 28 28 504 14112
451	1942895 2012 3753 118304 3.543820110601 63.788985990818 72 0 2 72 108
452	1944907 521 3753 118253 3.543820110601 63.788761990818 18 28 28 504 14112
453	1945428 1386 3806 116257 3.544044494315 62.773174702087 48 28 28 1344 37632
454	1946814 1386 3806 116257 3.544044494315 62.773174702087 48 28 28 1344 37632
455	1948200 1991 3810 119315 3.54404493769 64.402054838464 69 28 28 1932 54096
456	1950191 1991 3810 119315 3.54404493769 64.402054838464 69 28 28 1932 54096
457	1952182 492 3916 114791 3.644548132317 61.957318249389 17 28 28 476 13328
458	1952674 475 3916 114791 3.644548132317 61.957318249389 17 0 0 0 0
459	1953149 492 3917 114792 3.644548132317 61.957318249389 17 28 28 476 13328
460	1953641 1900 3917 114843 3.644548132317 61.957542249389 68 0 2 68 102
461	1955541 492 3917 114792 3.644548132317 61.957318249389 17 28 28 476 13328
462	1956033 1693 3974 117650 3.644772539717 63.582729017356 59 28 28 1652 46256
463	1957726 1693 3974 117650 3.644772539717 63.582729017356 59 28 28 1652 46256
464	1959419 1883 3982 119696 3.644772737008 64.700967097309 65 28 28 1820 50960
465	1961302 1883 3982 119696 3.644772737008 64.700967097309 65 28 28 1820 50960
466	1963185 2370 3986 120057 3.644772787594 64.793213814755 82 28 28 2296 64288
467	1965555 2370 3986 120057 3.644772787594 64.793213814755 82 28 28 2296 64288
468	1967925 199 4090 48887 3.731825646078 26.122779522546 7 28 28 196 5488
469	1968124 192 4090 48887 3.731825646078 26.122779522546 7 0 0 0 0
470	1968316 199 4091 48888 3.731825646078 26.122779522546 7 28 28 196 5488
471	1968515 768 4091 48939 3.731825646078 26.123003522546 28 0 2 28 42
472	1969283 199 4091 48888 3.731825646078 26.122779522546 7 28 28 196 5488
473	1969482 2252 4164 119933 3.732050436908 64.775653077702 78 28 28 2184 61152
474	1971734 2252 4164 119933 3.732050436908 64.775653077702 78 28 28 2184 61152
475	1973986 490 4212 117592 3.740147331352 63.582504632984 17 28 28 476 13328
476	1974476 473 4212 117592 3.740147331352 63.582504632984 17 0 0 0 0
477	1974949 490 4213 117593 3.740147331352 63.582504632984 17 28 28 476 13328
478	1975439 1892 4213 117644 3.740147331352 63.582728632984 68 0 2 68 102
479	1977331 490 4213 117593 3.740147331352 63.582504632984 17 28 28 476 13328
480	1977821 485 4326 118135 3.750075828135 63.751289078295 17 28 28 476 13328
481	1978306 468 4326 118135 3.750075828135 63.751289078295 17 0 0 0 0
482	1978774 485 4327 118136 3.750075828135 63.751289078295 17 28 28 476 13328
483	1979259 1872 4327 118187 3.750075828135 63.751513078295 68 0 2 68 102
484	1981131 485 4327 118136 3.750075828135 63.751289078295 17 28 28 476 13328
485	1981616 455 4503 113990 3.841030643415 61.45649029464 16 28 28 448 12544
486	1982071 439 4503 113990 3.841030643415 61.45649029464 16 0 0 0 0
487	1982510 455 4504 113991 3.841030643415 61.45649029464 16 28 28 448 12544
488	1982965 1756 4504 114042 3.841030643415 61.45671429464 64 0 2 64 96
489	1984721 455 4504 113991 3.841030643415 61.45649029464 16 28 28 448 12544
490	1985176 2561 4561 119179 3.841254965975 64.394291634656 89 28 28 2492 69776
491	1987737 2561 4561 119179 3.841254965975 64.394291634656 89 28 28 2492 69776
492	1990298 191 4573 17503 3.841255382688 9.90819869679 7 28 28 196 5488
493	1990489 191 4573 17503 3.841255382688 9.90819869679 7 28 28 196 5488
494	1990680 452 4629 115003 3.885323266275 62.1651722604 16 28 28 448 12544
495	1991132 436 4629 115003 3.885323266275 62.1651722604 16 0 0 0 0
496	1991568 452 4630 115004 3.885323266275 62.1651722604 16 28 28 448 12544
497	1992020 1744 4630 115055 3.885323266275 62.1653962604 64 0 2 64 96
498	1993764 452 4630 115004 3.885323266275 62.1651722604 16 28 28 448 12544
499	1994216 1067 4683 119821 3.885547476048 64.771080360178 37 28 28 1036 29008
500	1995283 1067 4683 119821 3.885547476048 64.771080360178 37 28 28 1036 29008
501	1996350 463 4739 115277 3.888430996519 62.214895944304 16 28 28 448 12544
502	1996813 447 4739 115277 3.888430996519 62.214895944304 16 0 0 0 0
503	1997260 463 4740 115278 3.888430996519 62.214895944304 16 28 28 448 12544
504	1997723 1788 4740 115329 3.888430996519 62.215119944304 64 0 2 64 96
505	1999511 463 4740 115278 3.888430996519 62.214895944304 16 28 28 448 12544
506	1999974 1567 4793 119688 3.88865540253 64.70096682657 54 28 28 1512 42336
507	2001541 1567 4793 119688 3.88865540253 64.70096682657 54 28 28 1512 42336
508	2003108 463 4904 115980 3.923177665197 62.770842643152 16 28 28 448 12544
509	2003571 447 4904 115980 3.923177665197 62.770842643152 16 0 0 0 0
510	2004018 463 4905 115981 3.923177665197 62.770842643152 16 28 28 448 12544
511	2004481 1788 4905 116032 3.923177665197 62.771066643152 64 0 2 64 96
512	2006269 463 4905 115981 3.923177665197 62.770842643152 16 28 28 448 12544
513	2006732 461 5018 116687 3.943295330168 63.092725282688 16 28 28 448 12544
514	2007193 445 5018 116687 3.943295330168 63.092725282688 16 0 0 0 0
515	2007638 461 5019 116688 3.943295330168 63.092725282688 16 28 28 448 12544
516	2008099 1780 5019 116739 3.943295330168 63.092949282688 64 0 2 64 96
517	2009879 461 5019 116688 3.943295330168 63.092725282688 16 28 28 448 12544
518	2010340 461 5131 116846 3.947929372666 63.166869962656 16 28 28 448 12544
519	2010801 445 5131 116846 3.947929372666 63.166869962656 16 0 0 0 0
520	2011246 461 5132 116847 3.947929372666 63.166869962656 16 28 28 448 12544
521	2011707 1780 5132 116898 3.947929372666 63.167093962656 64 0 2 64 96
522	2013487 461 5132 116847 3.947929372666 63.166869962656 16 28 28 448 12544
523	2013948 461 5289 120150 4.053259689794 64.852155036704 16 28 28 448 12544
524	2014409 445 5289 120150 4.053259689794 64.852155036704 16 0 0 0 0
525	2014854 461 5290 120151 4.053259689794 64.852155036704 16 28 28 448 12544
526	2015315 1780 5290 120202 4.053259689794 64.852379036704 64 0 2 64 96
527	2017095 461 5290 120151 4.053259689794 64.852155036704 16 28 28 448 12544
528	2017556 434 5457 115124 4.145499217687 62.182488265305 15 28 28 420 11760
529	2017990 419 5457 115124 4.145499217687 62.182488265305 15 0 0 0 0
530	2018409 434 5458 115125 4.145499217687 62.182488265305 15 28 28 420 11760
531	2018843 1676 5458 115176 4.145499217687 62.182712265305 60 0 2 60 90
532	2020519 434 5458 115125 4.145499217687 62.182488265305 15 28 28 420 11760
533	2020953 432 5576 115506 4.148989616386 62.23484424579 15 28 28 420 11760
534	2021385 417 5576 115506 4.148989616386 62.23484424579 15 0 0 0 0
535	2021802 432 5577 115507 4.148989616386 62.23484424579 15 28 28 420 11760
536	2022234 1668 5577 115558 4.148989616386 62.23506824579 60 0 2 60 90
537	2023902 432 5577 115507 4.148989616386 62.23484424579 15 28 28 420 11760
538	2024334 374 5735 101982 4.217594125667 54.828723633671 13 28 28 364 10192
539	2024708 361 5735 101982 4.217594125667 54.828723633671 13 0 0 0 0
540	2025069 374 5736 101983 4.217594125667 54.828723633671 13 28 28 364 10192
541	2025443 1444 5736 102034 4.217594125667 54.828947633671 52 0 2 52 78
542	2026887 374 5736 101983 4.217594125667 54.828723633671 13 28 28 364 10192
543	2027261 434 5858 117224 4.231949530477 63.479242957155 15 28 28 420 11760
544	2027695 419 5858 117224 4.231949530477 63.479242957155 15 0 0 0 0
545	2028114 434 5859 117225 4.231949530477 63.479242957155 15 28 28 420 11760
546	2028548 1676 5859 117277 4.231949530477 63.479466957155 60 0 2 60 90
547	2030224 434 5859 117225 4.231949530477 63.479242957155 15 28 28 420 11760
548	2030658 434 5968 117748 4.241529317331 63.622939759965 15 28 28 420 11760
549	2031092 419 5968 117748 4.241529317331 63.622939759965 15 0 0 0 0
550	2031511 434 5969 117749 4.241529317331 63.622939759965 15 28 28 420 11760
551	2031945 1676 5969 117800 4.241529317331 63.623163759965 60 0 2 60 90
552	2033621 434 5969 117749 4.241529317331 63.622939759965 15 28 28 420 11760
553	2034055 1360 6038 117802 4.241754172586 63.623164055838 47 28 28 1316 36848
554	2035415 1360 6038 117802 4.241754172586 63.623164055838 47 28 28 1316 36848
555	2036775 434 6091 117854 4.242918291683 63.643774375245 15 28 28 420 11760
556	2037209 419 6091 117854 4.242918291683 63.643774375245 15 0 0 0 0
557	2037628 434 6092 117855 4.242918291683 63.643774375245 15 28 28 420 11760
558	2038062 1676 6092 117906 4.242918291683 63.643998375245 60 0 2 60 90
559	2039738 434 6092 117855 4.242918291683 63.643774375245 15 28 28 420 11760
560	2040172 432 6209 118986 4.287043613642 64.30565420463 15 28 28 420 11760
561	2040604 417 6209 118986 4.287043613642 64.30565420463 15 0 0 0 0
562	2041021 432 6210 118987 4.287043613642 64.30565420463 15 28 28 420 11760
563	2041453 1668 6210 119038 4.287043613642 64.30587820463 60 0 2 60 90
564	2043121 432 6210 118987 4.287043613642 64.30565420463 15 28 28 420 11760
565	2043553 1360 6275 120045 4.28726839673 64.793213019985 47 28 28 1316 36848
566	2044913 1360 6275 120045 4.28726839673 64.793213019985 47 28 28 1316 36848
567	2046273 432 6377 119488 4.313154477682 64.69731716523 15 28 28 420 11760
568	2046705 417 6377 119488 4.313154477682 64.69731716523 15 0 0 0 0
569	2047122 432 6378 119489 4.313154477682 64.69731716523 15 28 28 420 11760
570	2047554 1668 6378 119540 4.313154477682 64.69754116523 60 0 2 60 90
571	2049222 432 6378 119489 4.313154477682 64.69731716523 15 28 28 420 11760
572	2049654 434 6493 119991 4.319532592143 64.792988882145 15 28 28 420 11760
573	2050088 419 6493 119991 4.319532592143 64.792988882145 15 0 0 0 0
574	2050507 434 6494 119992 4.319532592143 64.792988882145 15 28 28 420 11760
575	2050941 1676 6494 120043 4.319532592143 64.793212882145 60 0 2 60 90
576	2052617 434 6494 119992 4.319532592143 64.792988882145 15 28 28 420 11760
577	2053051 1139 6547 120061 4.319757400227 64.793213828103 39 28 28 1092 30576
578	2054190 1139 6547 120061 4.319757400227 64.793213828103 39 28 28 1092 30576
579	2055329 419 6602 120505 4.34019808833 65.10297132495 15 28 28 420 11760
580	2055748 404 6602 120505 4.34019808833 65.10297132495 15 0 0 0 0
581	2056152 419 6603 120506 4.34019808833 65.10297132495 15 28 28 420 11760
582	2056571 1616 6603 120557 4.34019808833 65.10319532495 60 0 2 60 90
583	2058187 419 6603 120506 4.34019808833 65.10297132495 15 28 28 420 11760
584	2058606 1215 6656 119692 4.340422409981 64.700967001318 42 28 28 1176 32928
585	2059821 1215 6656 119692 4.340422409981 64.700967001318 42 28 28 1176 32928
586	2061036 432 6712 120667 4.347862989926 65.21794484889 15 28 28 420 11760
587	2061468 417 6712 120667 4.347862989926 65.21794484889 15 0 0 0 0
588	2061885 432 6713 120668 4.347862989926 65.21794484889 15 28 28 420 11760
589	2062317 1668 6713 120719 4.347862989926 65.21816884889 60 0 2 60 90
590	2063985 432 6713 120668 4.347862989926 65.21794484889 15 28 28 420 11760
591	2064417 403 6827 113602 4.370004189736 61.180058656304 14 28 28 392 10976
592	2064820 389 6827 113602 4.370004189736 61.180058656304 14 0 0 0 0
593	2065209 403 6828 113603 4.370004189736 61.180058656304 14 28 28 392 10976
594	2065612 1556 6828 113654 4.370004189736 61.180282656304 56 0 2 56 84
595	2067168 403 6828 113603 4.370004189736 61.180058656304 14 28 28 392 10976
596	2067571 403 6998 114311 4.401309766932 61.618336737048 14 28 28 392 10976
597	2067974 389 6998 114311 4.401309766932 61.618336737048 14 0 0 0 0
598	2068363 403 6999 114312 4.401309766932 61.618336737048 14 28 28 392 10976
599	2068766 1556 6999 114363 4.401309766932 61.618560737048 56 0 2 56 84
600	2070322 403 6999 114312 4.401309766932 61.618336737048 14 28 28 392 10976
601	2070725 342 7052 98378 4.401534312888 52.692600957448 12 28 28 336 9408
602	2071067 342 7052 98378 4.401534312888 52.692600957448 12 28 28 336 9408
603	2071409 405 7111 116095 4.483741891063 62.772386474882 14 28 28 392 10976
604	2071814 391 7111 116095 4.483741891063 62.772386474882 14 0 0 0 0
605	2072205 405 7112 116096 4.483741891063 62.772386474882 14 28 28 392 10976
606	2072610 1564 7112 116147 4.483741891063 62.772610474882 56 0 2 56 84
607	2074174 405 7112 116096 4.483741891063 62.772386474882 14 28 28 392 10976
608	2074579 390 7278 118020 4.55298269928 63.74175778992 14 28 28 392 10976
609	2074969 376 7278 118020 4.55298269928 63.74175778992 14 0 0 0 0
610	2075345 390 7279 118021 4.55298269928 63.74175778992 14 28 28 392 10976
611	2075735 1504 7279 118072 4.55298269928 63.74198178992 56 0 2 56 84
612	2077239 390 7279 118021 4.55298269928 63.74175778992 14 28 28 392 10976
613	2077629 404 7449 120351 4.645566597204 65.037932360856 14 28 28 392 10976
614	2078033 390 7449 120351 4.645566597204 65.037932360856 14 0 0 0 0
615	2078423 404 7450 120352 4.645566597204 65.037932360856 14 28 28 392 10976
616	2078827 1560 7450 120403 4.645566597204 65.038156360856 56 0 2 56 84
617	2080387 404 7450 120352 4.645566597204 65.037932360856 14 28 28 392 10976
618	2080791 374 7566 112890 4.679130915208 60.828701897704 13 28 28 364 10192
619	2081165 361 7566 112890 4.679130915208 60.828701897704 13 0 0 0 0
620	2081526 374 7567 112891 4.679130915208 60.828701897704 13 28 28 364 10192
621	2081900 1444 7567 112942 4.679130915208 60.828925897704 52 0 2 52 78
622	2083344 374 7567 112891 4.679130915208 60.828701897704 13 28 28 364 10192
623	2083718 375 7780 117378 4.888621189059 63.552075457767 13 28 28 364 10192
624	2084093 362 7780 117378 4.888621189059 63.552075457767 13 0 0 0 0
625	2084455 375 7781 117379 4.888621189059 63.552075457767 13 28 28 364 10192
626	2084830 1448 7781 117430 4.888621189059 63.552299457767 52 0 2 52 78
627	2086278 375 7781 117379 4.888621189059 63.552075457767 13 28 28 364 10192
628	2086653 436 7838 117112 4.888846146491 63.360660541898 15 28 28 420 11760
629	2087089 436 7838 117112 4.888846146491 63.360660541898 15 28 28 420 11760
630	2087525 374 7890 117483 4.890444458858 63.575777965154 13 28 28 364 10192
631	2087899 361 7890 117483 4.890444458858 63.575777965154 13 0 0 0 0
632	2088260 374 7891 117484 4.890444458858 63.575777965154 13 28 28 364 10192
633	2088634 1444 7891 117535 4.890444458858 63.576001965154 52 0 2 52 78
634	2090078 374 7891 117484 4.890444458858 63.575777965154 13 28 28 364 10192
635	2090452 362 8058 119105 4.95338974114 64.39406663482 13 28 28 364 10192
636	2090814 349 8058 119105 4.95338974114 64.39406663482 13 0 0 0 0
637	2091163 362 8059 119106 4.95338974114 64.39406663482 13 28 28 364 10192
638	2091525 1396 8059 119157 4.95338974114 64.39429063482 52 0 2 52 78
639	2092921 362 8059 119106 4.95338974114 64.39406663482 13 28 28 364 10192
640	2093283 375 8174 119261 4.953986959788 64.401830477244 13 28 28 364 10192
641	2093658 362 8174 119261 4.953986959788 64.401830477244 13 0 0 0 0
642	2094020 375 8175 119262 4.953986959788 64.401830477244 13 28 28 364 10192
643	2094395 1448 8175 119313 4.953986959788 64.402054477244 52 0 2 52 78
644	2095843 375 8175 119262 4.953986959788 64.401830477244 13 28 28 364 10192
645	2096218 371 8296 119634 4.976980187055 64.700742431715 13 28 28 364 10192
646	2096589 358 8296 119634 4.976980187055 64.700742431715 13 0 0 0 0
647	2096947 371 8297 119635 4.976980187055 64.700742431715 13 28 28 364 10192
648	2097318 1432 8297 119686 4.976980187055 64.700966431715 52 0 2 52 78
649	2098750 371 8297 119635 4.976980187055 64.700742431715 13 28 28 364 10192

