version 2
run KHOPCA_Network_Random-0-20180920-22:53:31-8756
attr configname KHOPCA_Network_Random
attr datetime 20180920-22:53:31
attr experiment KHOPCA_Network_Random
attr inifile omnetpp.ini
attr iterationvars ""
attr iterationvarsf ""
attr measurement ""
attr network SensorNetwork
attr processid 8756
attr repetition 0
attr replication #0
attr resultdir results
attr runnumber 0
attr seedset 0
param *.numHosts 50
param **.constraintAreaMinX 0m
param **.constraintAreaMinY 0m
param **.constraintAreaMinZ 0m
param **.constraintAreaMaxX 2000m
param **.constraintAreaMaxY 2000m
param **.constraintAreaMaxZ 10m
param *.host*.wlan[*].typename "\"IdealWirelessNic\""
param *.host*.wlan[*].mac.useAck false
param *.host*.wlan[*].mac.fullDuplex false
param *.host*.wlan[*].radio.transmitter.communicationRange 300m
param *.host*.wlan[*].radio.receiver.ignoreInterference true
param *.host*.**.bitrate 1Mbps
param *.visualizer.interfaceTableVisualizer.displayInterfaceTables false
param *.visualizer.interfaceTableVisualizer.interfaceFilter "\"wlan*\""
param *.visualizer.interfaceTableVisualizer.format "\"%N\\n%n\""
param *.visualizer.interfaceTableVisualizer.displacementHint "\"left\""
param *.visualizer.sceneVisualizer.descriptionFigure "\"title\""
param *.visualizer.linkBreakVisualizer.displayLinkBreaks true
param *.visualizer.packetDropVisualizer.displayPacketDrops true
param *.visualizer.packetDropVisualizer.packetFilter "\"UDPData*\""
param *.visualizer.mediumVisualizer.signalPropagationAnimationSpeed 0.000001
param *.visualizer.mediumVisualizer.signalTransmissionAnimationSpeed 0.0005
param *.visualizer.mediumVisualizer.displayTransmissions true
param *.visualizer.mediumVisualizer.displayReceptions true
param *.visualizer.mediumVisualizer.displaySignals false
param *.configurator.config "xml(\"<config><interface hosts='**' address='10.0.0.x' netmask='255.255.255.0'/><autoroute metric='errorRate'/></config>\")"
param *.configurator.optimizeRoutes false
param *.host*.routingTable.netmaskRoutes "\"\""
param *.configurator.addStaticRoutes false
param *.host*.wlan[0].radio.displayCommunicationRange false
param *.host*.wlan[0].radio.energyConsumerType "\"StateBasedEpEnergyConsumer\""
param **.host*.energyStorageType "\"SimpleEpEnergyStorage\""
param **.host*.energyStorage.nominalCapacity 1J
param **.host[*].energyStorage.initialCapacity "uniform(index * 0.01J, this.nominalCapacity)"
param **.host[*].khopca.updateInterval 3
param **.host[*].mobilityType "\"RandomWPMobility\""
param **.host[*].mobility.speed "uniform(index * 0.2mps,20mps)"
param **.host[*].mobility.waypointProximity 100m
param **.host[*].mobility.waitTime uniform(0s,1s)
param **.constraintAreaMinX 100m
param **.constraintAreaMinY 50m
param **.constraintAreaMinZ 0m
param **.constraintAreaMaxX 1000m
param **.constraintAreaMaxY 950m
param **.constraintAreaMaxZ 10m
param **.hasStatus true

vector 0 SensorNetwork.host[0].energyStorage residualEnergyCapacity:vector ETV
attr interpolationmode linear
attr source residualEnergyCapacityChanged
attr title "Residual energy capacity, vector"
vector 1 SensorNetwork.host[0].wlan[0].queue queueLength:vector ETV
attr interpolationmode sample-hold
attr title "queue length, vector"
vector 2 SensorNetwork.host[1].energyStorage residualEnergyCapacity:vector ETV
attr interpolationmode linear
attr source residualEnergyCapacityChanged
attr title "Residual energy capacity, vector"
vector 3 SensorNetwork.host[1].wlan[0].queue queueLength:vector ETV
attr interpolationmode sample-hold
attr title "queue length, vector"
vector 4 SensorNetwork.host[2].energyStorage residualEnergyCapacity:vector ETV
attr interpolationmode linear
attr source residualEnergyCapacityChanged
attr title "Residual energy capacity, vector"
vector 5 SensorNetwork.host[2].wlan[0].queue queueLength:vector ETV
attr interpolationmode sample-hold
attr title "queue length, vector"
vector 6 SensorNetwork.host[3].energyStorage residualEnergyCapacity:vector ETV
attr interpolationmode linear
attr source residualEnergyCapacityChanged
attr title "Residual energy capacity, vector"
vector 7 SensorNetwork.host[3].wlan[0].queue queueLength:vector ETV
attr interpolationmode sample-hold
attr title "queue length, vector"
vector 8 SensorNetwork.host[4].energyStorage residualEnergyCapacity:vector ETV
attr interpolationmode linear
attr source residualEnergyCapacityChanged
attr title "Residual energy capacity, vector"
vector 9 SensorNetwork.host[4].wlan[0].queue queueLength:vector ETV
attr interpolationmode sample-hold
attr title "queue length, vector"
vector 10 SensorNetwork.host[5].energyStorage residualEnergyCapacity:vector ETV
attr interpolationmode linear
attr source residualEnergyCapacityChanged
attr title "Residual energy capacity, vector"
vector 11 SensorNetwork.host[5].wlan[0].queue queueLength:vector ETV
attr interpolationmode sample-hold
attr title "queue length, vector"
vector 12 SensorNetwork.host[6].energyStorage residualEnergyCapacity:vector ETV
attr interpolationmode linear
attr source residualEnergyCapacityChanged
attr title "Residual energy capacity, vector"
vector 13 SensorNetwork.host[6].wlan[0].queue queueLength:vector ETV
attr interpolationmode sample-hold
attr title "queue length, vector"
vector 14 SensorNetwork.host[7].energyStorage residualEnergyCapacity:vector ETV
attr interpolationmode linear
attr source residualEnergyCapacityChanged
attr title "Residual energy capacity, vector"
vector 15 SensorNetwork.host[7].wlan[0].queue queueLength:vector ETV
attr interpolationmode sample-hold
attr title "queue length, vector"
vector 16 SensorNetwork.host[8].energyStorage residualEnergyCapacity:vector ETV
attr interpolationmode linear
attr source residualEnergyCapacityChanged
attr title "Residual energy capacity, vector"
vector 17 SensorNetwork.host[8].wlan[0].queue queueLength:vector ETV
attr interpolationmode sample-hold
attr title "queue length, vector"
vector 18 SensorNetwork.host[9].energyStorage residualEnergyCapacity:vector ETV
attr interpolationmode linear
attr source residualEnergyCapacityChanged
attr title "Residual energy capacity, vector"
vector 19 SensorNetwork.host[9].wlan[0].queue queueLength:vector ETV
attr interpolationmode sample-hold
attr title "queue length, vector"
vector 20 SensorNetwork.host[10].energyStorage residualEnergyCapacity:vector ETV
attr interpolationmode linear
attr source residualEnergyCapacityChanged
attr title "Residual energy capacity, vector"
vector 21 SensorNetwork.host[10].wlan[0].queue queueLength:vector ETV
attr interpolationmode sample-hold
attr title "queue length, vector"
vector 22 SensorNetwork.host[11].energyStorage residualEnergyCapacity:vector ETV
attr interpolationmode linear
attr source residualEnergyCapacityChanged
attr title "Residual energy capacity, vector"
vector 23 SensorNetwork.host[11].wlan[0].queue queueLength:vector ETV
attr interpolationmode sample-hold
attr title "queue length, vector"
vector 24 SensorNetwork.host[12].energyStorage residualEnergyCapacity:vector ETV
attr interpolationmode linear
attr source residualEnergyCapacityChanged
attr title "Residual energy capacity, vector"
vector 25 SensorNetwork.host[12].wlan[0].queue queueLength:vector ETV
attr interpolationmode sample-hold
attr title "queue length, vector"
vector 26 SensorNetwork.host[13].energyStorage residualEnergyCapacity:vector ETV
attr interpolationmode linear
attr source residualEnergyCapacityChanged
attr title "Residual energy capacity, vector"
vector 27 SensorNetwork.host[13].wlan[0].queue queueLength:vector ETV
attr interpolationmode sample-hold
attr title "queue length, vector"
vector 28 SensorNetwork.host[14].energyStorage residualEnergyCapacity:vector ETV
attr interpolationmode linear
attr source residualEnergyCapacityChanged
attr title "Residual energy capacity, vector"
vector 29 SensorNetwork.host[14].wlan[0].queue queueLength:vector ETV
attr interpolationmode sample-hold
attr title "queue length, vector"
vector 30 SensorNetwork.host[15].energyStorage residualEnergyCapacity:vector ETV
attr interpolationmode linear
attr source residualEnergyCapacityChanged
attr title "Residual energy capacity, vector"
vector 31 SensorNetwork.host[15].wlan[0].queue queueLength:vector ETV
attr interpolationmode sample-hold
attr title "queue length, vector"
vector 32 SensorNetwork.host[16].energyStorage residualEnergyCapacity:vector ETV
attr interpolationmode linear
attr source residualEnergyCapacityChanged
attr title "Residual energy capacity, vector"
vector 33 SensorNetwork.host[16].wlan[0].queue queueLength:vector ETV
attr interpolationmode sample-hold
attr title "queue length, vector"
vector 34 SensorNetwork.host[17].energyStorage residualEnergyCapacity:vector ETV
attr interpolationmode linear
attr source residualEnergyCapacityChanged
attr title "Residual energy capacity, vector"
vector 35 SensorNetwork.host[17].wlan[0].queue queueLength:vector ETV
attr interpolationmode sample-hold
attr title "queue length, vector"
vector 36 SensorNetwork.host[18].energyStorage residualEnergyCapacity:vector ETV
attr interpolationmode linear
attr source residualEnergyCapacityChanged
attr title "Residual energy capacity, vector"
vector 37 SensorNetwork.host[18].wlan[0].queue queueLength:vector ETV
attr interpolationmode sample-hold
attr title "queue length, vector"
vector 38 SensorNetwork.host[19].energyStorage residualEnergyCapacity:vector ETV
attr interpolationmode linear
attr source residualEnergyCapacityChanged
attr title "Residual energy capacity, vector"
vector 39 SensorNetwork.host[19].wlan[0].queue queueLength:vector ETV
attr interpolationmode sample-hold
attr title "queue length, vector"
vector 40 SensorNetwork.host[20].energyStorage residualEnergyCapacity:vector ETV
attr interpolationmode linear
attr source residualEnergyCapacityChanged
attr title "Residual energy capacity, vector"
vector 41 SensorNetwork.host[20].wlan[0].queue queueLength:vector ETV
attr interpolationmode sample-hold
attr title "queue length, vector"
vector 42 SensorNetwork.host[21].energyStorage residualEnergyCapacity:vector ETV
attr interpolationmode linear
attr source residualEnergyCapacityChanged
attr title "Residual energy capacity, vector"
vector 43 SensorNetwork.host[21].wlan[0].queue queueLength:vector ETV
attr interpolationmode sample-hold
attr title "queue length, vector"
vector 44 SensorNetwork.host[22].energyStorage residualEnergyCapacity:vector ETV
attr interpolationmode linear
attr source residualEnergyCapacityChanged
attr title "Residual energy capacity, vector"
vector 45 SensorNetwork.host[22].wlan[0].queue queueLength:vector ETV
attr interpolationmode sample-hold
attr title "queue length, vector"
vector 46 SensorNetwork.host[23].energyStorage residualEnergyCapacity:vector ETV
attr interpolationmode linear
attr source residualEnergyCapacityChanged
attr title "Residual energy capacity, vector"
vector 47 SensorNetwork.host[23].wlan[0].queue queueLength:vector ETV
attr interpolationmode sample-hold
attr title "queue length, vector"
vector 48 SensorNetwork.host[24].energyStorage residualEnergyCapacity:vector ETV
attr interpolationmode linear
attr source residualEnergyCapacityChanged
attr title "Residual energy capacity, vector"
vector 49 SensorNetwork.host[24].wlan[0].queue queueLength:vector ETV
attr interpolationmode sample-hold
attr title "queue length, vector"
vector 50 SensorNetwork.host[25].energyStorage residualEnergyCapacity:vector ETV
attr interpolationmode linear
attr source residualEnergyCapacityChanged
attr title "Residual energy capacity, vector"
vector 51 SensorNetwork.host[25].wlan[0].queue queueLength:vector ETV
attr interpolationmode sample-hold
attr title "queue length, vector"
vector 52 SensorNetwork.host[26].energyStorage residualEnergyCapacity:vector ETV
attr interpolationmode linear
attr source residualEnergyCapacityChanged
attr title "Residual energy capacity, vector"
vector 53 SensorNetwork.host[26].wlan[0].queue queueLength:vector ETV
attr interpolationmode sample-hold
attr title "queue length, vector"
vector 54 SensorNetwork.host[27].energyStorage residualEnergyCapacity:vector ETV
attr interpolationmode linear
attr source residualEnergyCapacityChanged
attr title "Residual energy capacity, vector"
vector 55 SensorNetwork.host[27].wlan[0].queue queueLength:vector ETV
attr interpolationmode sample-hold
attr title "queue length, vector"
vector 56 SensorNetwork.host[28].energyStorage residualEnergyCapacity:vector ETV
attr interpolationmode linear
attr source residualEnergyCapacityChanged
attr title "Residual energy capacity, vector"
vector 57 SensorNetwork.host[28].wlan[0].queue queueLength:vector ETV
attr interpolationmode sample-hold
attr title "queue length, vector"
vector 58 SensorNetwork.host[29].energyStorage residualEnergyCapacity:vector ETV
attr interpolationmode linear
attr source residualEnergyCapacityChanged
attr title "Residual energy capacity, vector"
vector 59 SensorNetwork.host[29].wlan[0].queue queueLength:vector ETV
attr interpolationmode sample-hold
attr title "queue length, vector"
vector 60 SensorNetwork.host[30].energyStorage residualEnergyCapacity:vector ETV
attr interpolationmode linear
attr source residualEnergyCapacityChanged
attr title "Residual energy capacity, vector"
vector 61 SensorNetwork.host[30].wlan[0].queue queueLength:vector ETV
attr interpolationmode sample-hold
attr title "queue length, vector"
vector 62 SensorNetwork.host[31].energyStorage residualEnergyCapacity:vector ETV
attr interpolationmode linear
attr source residualEnergyCapacityChanged
attr title "Residual energy capacity, vector"
vector 63 SensorNetwork.host[31].wlan[0].queue queueLength:vector ETV
attr interpolationmode sample-hold
attr title "queue length, vector"
vector 64 SensorNetwork.host[32].energyStorage residualEnergyCapacity:vector ETV
attr interpolationmode linear
attr source residualEnergyCapacityChanged
attr title "Residual energy capacity, vector"
vector 65 SensorNetwork.host[32].wlan[0].queue queueLength:vector ETV
attr interpolationmode sample-hold
attr title "queue length, vector"
vector 66 SensorNetwork.host[33].energyStorage residualEnergyCapacity:vector ETV
attr interpolationmode linear
attr source residualEnergyCapacityChanged
attr title "Residual energy capacity, vector"
vector 67 SensorNetwork.host[33].wlan[0].queue queueLength:vector ETV
attr interpolationmode sample-hold
attr title "queue length, vector"
vector 68 SensorNetwork.host[34].energyStorage residualEnergyCapacity:vector ETV
attr interpolationmode linear
attr source residualEnergyCapacityChanged
attr title "Residual energy capacity, vector"
vector 69 SensorNetwork.host[34].wlan[0].queue queueLength:vector ETV
attr interpolationmode sample-hold
attr title "queue length, vector"
vector 70 SensorNetwork.host[35].energyStorage residualEnergyCapacity:vector ETV
attr interpolationmode linear
attr source residualEnergyCapacityChanged
attr title "Residual energy capacity, vector"
vector 71 SensorNetwork.host[35].wlan[0].queue queueLength:vector ETV
attr interpolationmode sample-hold
attr title "queue length, vector"
vector 72 SensorNetwork.host[36].energyStorage residualEnergyCapacity:vector ETV
attr interpolationmode linear
attr source residualEnergyCapacityChanged
attr title "Residual energy capacity, vector"
vector 73 SensorNetwork.host[36].wlan[0].queue queueLength:vector ETV
attr interpolationmode sample-hold
attr title "queue length, vector"
vector 74 SensorNetwork.host[37].energyStorage residualEnergyCapacity:vector ETV
attr interpolationmode linear
attr source residualEnergyCapacityChanged
attr title "Residual energy capacity, vector"
vector 75 SensorNetwork.host[37].wlan[0].queue queueLength:vector ETV
attr interpolationmode sample-hold
attr title "queue length, vector"
vector 76 SensorNetwork.host[38].energyStorage residualEnergyCapacity:vector ETV
attr interpolationmode linear
attr source residualEnergyCapacityChanged
attr title "Residual energy capacity, vector"
vector 77 SensorNetwork.host[38].wlan[0].queue queueLength:vector ETV
attr interpolationmode sample-hold
attr title "queue length, vector"
vector 78 SensorNetwork.host[39].energyStorage residualEnergyCapacity:vector ETV
attr interpolationmode linear
attr source residualEnergyCapacityChanged
attr title "Residual energy capacity, vector"
vector 79 SensorNetwork.host[39].wlan[0].queue queueLength:vector ETV
attr interpolationmode sample-hold
attr title "queue length, vector"
vector 80 SensorNetwork.host[40].energyStorage residualEnergyCapacity:vector ETV
attr interpolationmode linear
attr source residualEnergyCapacityChanged
attr title "Residual energy capacity, vector"
vector 81 SensorNetwork.host[40].wlan[0].queue queueLength:vector ETV
attr interpolationmode sample-hold
attr title "queue length, vector"
vector 82 SensorNetwork.host[41].energyStorage residualEnergyCapacity:vector ETV
attr interpolationmode linear
attr source residualEnergyCapacityChanged
attr title "Residual energy capacity, vector"
vector 83 SensorNetwork.host[41].wlan[0].queue queueLength:vector ETV
attr interpolationmode sample-hold
attr title "queue length, vector"
vector 84 SensorNetwork.host[42].energyStorage residualEnergyCapacity:vector ETV
attr interpolationmode linear
attr source residualEnergyCapacityChanged
attr title "Residual energy capacity, vector"
vector 85 SensorNetwork.host[42].wlan[0].queue queueLength:vector ETV
attr interpolationmode sample-hold
attr title "queue length, vector"
vector 86 SensorNetwork.host[43].energyStorage residualEnergyCapacity:vector ETV
attr interpolationmode linear
attr source residualEnergyCapacityChanged
attr title "Residual energy capacity, vector"
vector 87 SensorNetwork.host[43].wlan[0].queue queueLength:vector ETV
attr interpolationmode sample-hold
attr title "queue length, vector"
vector 88 SensorNetwork.host[44].energyStorage residualEnergyCapacity:vector ETV
attr interpolationmode linear
attr source residualEnergyCapacityChanged
attr title "Residual energy capacity, vector"
vector 89 SensorNetwork.host[44].wlan[0].queue queueLength:vector ETV
attr interpolationmode sample-hold
attr title "queue length, vector"
vector 90 SensorNetwork.host[45].energyStorage residualEnergyCapacity:vector ETV
attr interpolationmode linear
attr source residualEnergyCapacityChanged
attr title "Residual energy capacity, vector"
vector 91 SensorNetwork.host[45].wlan[0].queue queueLength:vector ETV
attr interpolationmode sample-hold
attr title "queue length, vector"
vector 92 SensorNetwork.host[46].energyStorage residualEnergyCapacity:vector ETV
attr interpolationmode linear
attr source residualEnergyCapacityChanged
attr title "Residual energy capacity, vector"
vector 93 SensorNetwork.host[46].wlan[0].queue queueLength:vector ETV
attr interpolationmode sample-hold
attr title "queue length, vector"
vector 94 SensorNetwork.host[47].energyStorage residualEnergyCapacity:vector ETV
attr interpolationmode linear
attr source residualEnergyCapacityChanged
attr title "Residual energy capacity, vector"
vector 95 SensorNetwork.host[47].wlan[0].queue queueLength:vector ETV
attr interpolationmode sample-hold
attr title "queue length, vector"
vector 96 SensorNetwork.host[48].energyStorage residualEnergyCapacity:vector ETV
attr interpolationmode linear
attr source residualEnergyCapacityChanged
attr title "Residual energy capacity, vector"
vector 97 SensorNetwork.host[48].wlan[0].queue queueLength:vector ETV
attr interpolationmode sample-hold
attr title "queue length, vector"
vector 98 SensorNetwork.host[49].energyStorage residualEnergyCapacity:vector ETV
attr interpolationmode linear
attr source residualEnergyCapacityChanged
attr title "Residual energy capacity, vector"
vector 99 SensorNetwork.host[49].wlan[0].queue queueLength:vector ETV
attr interpolationmode sample-hold
attr title "queue length, vector"
vector 100 SensorNetwork.host[0].energyStorage powerConsumption:vector ETV
attr interpolationmode sample-hold
attr source powerConsumptionChanged
attr title "Power consumption, vector"
vector 101 SensorNetwork.host[1].energyStorage powerConsumption:vector ETV
attr interpolationmode sample-hold
attr source powerConsumptionChanged
attr title "Power consumption, vector"
vector 102 SensorNetwork.host[2].energyStorage powerConsumption:vector ETV
attr interpolationmode sample-hold
attr source powerConsumptionChanged
attr title "Power consumption, vector"
vector 103 SensorNetwork.host[3].energyStorage powerConsumption:vector ETV
attr interpolationmode sample-hold
attr source powerConsumptionChanged
attr title "Power consumption, vector"
vector 104 SensorNetwork.host[4].energyStorage powerConsumption:vector ETV
attr interpolationmode sample-hold
attr source powerConsumptionChanged
attr title "Power consumption, vector"
vector 105 SensorNetwork.host[5].energyStorage powerConsumption:vector ETV
attr interpolationmode sample-hold
attr source powerConsumptionChanged
attr title "Power consumption, vector"
vector 106 SensorNetwork.host[6].energyStorage powerConsumption:vector ETV
attr interpolationmode sample-hold
attr source powerConsumptionChanged
attr title "Power consumption, vector"
vector 107 SensorNetwork.host[7].energyStorage powerConsumption:vector ETV
attr interpolationmode sample-hold
attr source powerConsumptionChanged
attr title "Power consumption, vector"
vector 108 SensorNetwork.host[8].energyStorage powerConsumption:vector ETV
attr interpolationmode sample-hold
attr source powerConsumptionChanged
attr title "Power consumption, vector"
vector 109 SensorNetwork.host[9].energyStorage powerConsumption:vector ETV
attr interpolationmode sample-hold
attr source powerConsumptionChanged
attr title "Power consumption, vector"
vector 110 SensorNetwork.host[10].energyStorage powerConsumption:vector ETV
attr interpolationmode sample-hold
attr source powerConsumptionChanged
attr title "Power consumption, vector"
vector 111 SensorNetwork.host[11].energyStorage powerConsumption:vector ETV
attr interpolationmode sample-hold
attr source powerConsumptionChanged
attr title "Power consumption, vector"
vector 112 SensorNetwork.host[12].energyStorage powerConsumption:vector ETV
attr interpolationmode sample-hold
attr source powerConsumptionChanged
attr title "Power consumption, vector"
vector 113 SensorNetwork.host[13].energyStorage powerConsumption:vector ETV
attr interpolationmode sample-hold
attr source powerConsumptionChanged
attr title "Power consumption, vector"
vector 114 SensorNetwork.host[14].energyStorage powerConsumption:vector ETV
attr interpolationmode sample-hold
attr source powerConsumptionChanged
attr title "Power consumption, vector"
vector 115 SensorNetwork.host[15].energyStorage powerConsumption:vector ETV
attr interpolationmode sample-hold
attr source powerConsumptionChanged
attr title "Power consumption, vector"
vector 116 SensorNetwork.host[16].energyStorage powerConsumption:vector ETV
attr interpolationmode sample-hold
attr source powerConsumptionChanged
attr title "Power consumption, vector"
vector 117 SensorNetwork.host[17].energyStorage powerConsumption:vector ETV
attr interpolationmode sample-hold
attr source powerConsumptionChanged
attr title "Power consumption, vector"
vector 118 SensorNetwork.host[18].energyStorage powerConsumption:vector ETV
attr interpolationmode sample-hold
attr source powerConsumptionChanged
attr title "Power consumption, vector"
vector 119 SensorNetwork.host[19].energyStorage powerConsumption:vector ETV
attr interpolationmode sample-hold
attr source powerConsumptionChanged
attr title "Power consumption, vector"
vector 120 SensorNetwork.host[20].energyStorage powerConsumption:vector ETV
attr interpolationmode sample-hold
attr source powerConsumptionChanged
attr title "Power consumption, vector"
vector 121 SensorNetwork.host[21].energyStorage powerConsumption:vector ETV
attr interpolationmode sample-hold
attr source powerConsumptionChanged
attr title "Power consumption, vector"
vector 122 SensorNetwork.host[22].energyStorage powerConsumption:vector ETV
attr interpolationmode sample-hold
attr source powerConsumptionChanged
attr title "Power consumption, vector"
vector 123 SensorNetwork.host[23].energyStorage powerConsumption:vector ETV
attr interpolationmode sample-hold
attr source powerConsumptionChanged
attr title "Power consumption, vector"
vector 124 SensorNetwork.host[24].energyStorage powerConsumption:vector ETV
attr interpolationmode sample-hold
attr source powerConsumptionChanged
attr title "Power consumption, vector"
vector 125 SensorNetwork.host[25].energyStorage powerConsumption:vector ETV
attr interpolationmode sample-hold
attr source powerConsumptionChanged
attr title "Power consumption, vector"
vector 126 SensorNetwork.host[26].energyStorage powerConsumption:vector ETV
attr interpolationmode sample-hold
attr source powerConsumptionChanged
attr title "Power consumption, vector"
vector 127 SensorNetwork.host[27].energyStorage powerConsumption:vector ETV
attr interpolationmode sample-hold
attr source powerConsumptionChanged
attr title "Power consumption, vector"
vector 128 SensorNetwork.host[28].energyStorage powerConsumption:vector ETV
attr interpolationmode sample-hold
attr source powerConsumptionChanged
attr title "Power consumption, vector"
vector 129 SensorNetwork.host[29].energyStorage powerConsumption:vector ETV
attr interpolationmode sample-hold
attr source powerConsumptionChanged
attr title "Power consumption, vector"
vector 130 SensorNetwork.host[30].energyStorage powerConsumption:vector ETV
attr interpolationmode sample-hold
attr source powerConsumptionChanged
attr title "Power consumption, vector"
vector 131 SensorNetwork.host[31].energyStorage powerConsumption:vector ETV
attr interpolationmode sample-hold
attr source powerConsumptionChanged
attr title "Power consumption, vector"
vector 132 SensorNetwork.host[32].energyStorage powerConsumption:vector ETV
attr interpolationmode sample-hold
attr source powerConsumptionChanged
attr title "Power consumption, vector"
vector 133 SensorNetwork.host[33].energyStorage powerConsumption:vector ETV
attr interpolationmode sample-hold
attr source powerConsumptionChanged
attr title "Power consumption, vector"
vector 134 SensorNetwork.host[34].energyStorage powerConsumption:vector ETV
attr interpolationmode sample-hold
attr source powerConsumptionChanged
attr title "Power consumption, vector"
vector 135 SensorNetwork.host[35].energyStorage powerConsumption:vector ETV
attr interpolationmode sample-hold
attr source powerConsumptionChanged
attr title "Power consumption, vector"
vector 136 SensorNetwork.host[36].energyStorage powerConsumption:vector ETV
attr interpolationmode sample-hold
attr source powerConsumptionChanged
attr title "Power consumption, vector"
vector 137 SensorNetwork.host[37].energyStorage powerConsumption:vector ETV
attr interpolationmode sample-hold
attr source powerConsumptionChanged
attr title "Power consumption, vector"
vector 138 SensorNetwork.host[38].energyStorage powerConsumption:vector ETV
attr interpolationmode sample-hold
attr source powerConsumptionChanged
attr title "Power consumption, vector"
vector 139 SensorNetwork.host[39].energyStorage powerConsumption:vector ETV
attr interpolationmode sample-hold
attr source powerConsumptionChanged
attr title "Power consumption, vector"
vector 140 SensorNetwork.host[40].energyStorage powerConsumption:vector ETV
attr interpolationmode sample-hold
attr source powerConsumptionChanged
attr title "Power consumption, vector"
vector 141 SensorNetwork.host[41].energyStorage powerConsumption:vector ETV
attr interpolationmode sample-hold
attr source powerConsumptionChanged
attr title "Power consumption, vector"
vector 142 SensorNetwork.host[42].energyStorage powerConsumption:vector ETV
attr interpolationmode sample-hold
attr source powerConsumptionChanged
attr title "Power consumption, vector"
vector 143 SensorNetwork.host[43].energyStorage powerConsumption:vector ETV
attr interpolationmode sample-hold
attr source powerConsumptionChanged
attr title "Power consumption, vector"
vector 144 SensorNetwork.host[44].energyStorage powerConsumption:vector ETV
attr interpolationmode sample-hold
attr source powerConsumptionChanged
attr title "Power consumption, vector"
vector 145 SensorNetwork.host[45].energyStorage powerConsumption:vector ETV
attr interpolationmode sample-hold
attr source powerConsumptionChanged
attr title "Power consumption, vector"
vector 146 SensorNetwork.host[46].energyStorage powerConsumption:vector ETV
attr interpolationmode sample-hold
attr source powerConsumptionChanged
attr title "Power consumption, vector"
vector 147 SensorNetwork.host[47].energyStorage powerConsumption:vector ETV
attr interpolationmode sample-hold
attr source powerConsumptionChanged
attr title "Power consumption, vector"
vector 148 SensorNetwork.host[48].energyStorage powerConsumption:vector ETV
attr interpolationmode sample-hold
attr source powerConsumptionChanged
attr title "Power consumption, vector"
vector 149 SensorNetwork.host[49].energyStorage powerConsumption:vector ETV
attr interpolationmode sample-hold
attr source powerConsumptionChanged
attr title "Power consumption, vector"
vector 150 SensorNetwork.host[0].wlan[0].radio radioMode:vector ETV
attr interpolationmode sample-hold
attr source radioModeChanged
attr title "Radio mode, vector"
vector 151 SensorNetwork.host[0].wlan[0].radio.energyConsumer powerConsumption:vector ETV
attr interpolationmode sample-hold
attr source powerConsumptionChanged
attr title "Power consumption, vector"
vector 152 SensorNetwork.host[1].wlan[0].radio radioMode:vector ETV
attr interpolationmode sample-hold
attr source radioModeChanged
attr title "Radio mode, vector"
vector 153 SensorNetwork.host[1].wlan[0].radio.energyConsumer powerConsumption:vector ETV
attr interpolationmode sample-hold
attr source powerConsumptionChanged
attr title "Power consumption, vector"
vector 154 SensorNetwork.host[2].wlan[0].radio radioMode:vector ETV
attr interpolationmode sample-hold
attr source radioModeChanged
attr title "Radio mode, vector"
vector 155 SensorNetwork.host[2].wlan[0].radio.energyConsumer powerConsumption:vector ETV
attr interpolationmode sample-hold
attr source powerConsumptionChanged
attr title "Power consumption, vector"
vector 156 SensorNetwork.host[3].wlan[0].radio radioMode:vector ETV
attr interpolationmode sample-hold
attr source radioModeChanged
attr title "Radio mode, vector"
vector 157 SensorNetwork.host[3].wlan[0].radio.energyConsumer powerConsumption:vector ETV
attr interpolationmode sample-hold
attr source powerConsumptionChanged
attr title "Power consumption, vector"
vector 158 SensorNetwork.host[4].wlan[0].radio radioMode:vector ETV
attr interpolationmode sample-hold
attr source radioModeChanged
attr title "Radio mode, vector"
vector 159 SensorNetwork.host[4].wlan[0].radio.energyConsumer powerConsumption:vector ETV
attr interpolationmode sample-hold
attr source powerConsumptionChanged
attr title "Power consumption, vector"
vector 160 SensorNetwork.host[5].wlan[0].radio radioMode:vector ETV
attr interpolationmode sample-hold
attr source radioModeChanged
attr title "Radio mode, vector"
vector 161 SensorNetwork.host[5].wlan[0].radio.energyConsumer powerConsumption:vector ETV
attr interpolationmode sample-hold
attr source powerConsumptionChanged
attr title "Power consumption, vector"
vector 162 SensorNetwork.host[6].wlan[0].radio radioMode:vector ETV
attr interpolationmode sample-hold
attr source radioModeChanged
attr title "Radio mode, vector"
vector 163 SensorNetwork.host[6].wlan[0].radio.energyConsumer powerConsumption:vector ETV
attr interpolationmode sample-hold
attr source powerConsumptionChanged
attr title "Power consumption, vector"
vector 164 SensorNetwork.host[7].wlan[0].radio radioMode:vector ETV
attr interpolationmode sample-hold
attr source radioModeChanged
attr title "Radio mode, vector"
vector 165 SensorNetwork.host[7].wlan[0].radio.energyConsumer powerConsumption:vector ETV
attr interpolationmode sample-hold
attr source powerConsumptionChanged
attr title "Power consumption, vector"
vector 166 SensorNetwork.host[8].wlan[0].radio radioMode:vector ETV
attr interpolationmode sample-hold
attr source radioModeChanged
attr title "Radio mode, vector"
vector 167 SensorNetwork.host[8].wlan[0].radio.energyConsumer powerConsumption:vector ETV
attr interpolationmode sample-hold
attr source powerConsumptionChanged
attr title "Power consumption, vector"
vector 168 SensorNetwork.host[9].wlan[0].radio radioMode:vector ETV
attr interpolationmode sample-hold
attr source radioModeChanged
attr title "Radio mode, vector"
vector 169 SensorNetwork.host[9].wlan[0].radio.energyConsumer powerConsumption:vector ETV
attr interpolationmode sample-hold
attr source powerConsumptionChanged
attr title "Power consumption, vector"
vector 170 SensorNetwork.host[10].wlan[0].radio radioMode:vector ETV
attr interpolationmode sample-hold
attr source radioModeChanged
attr title "Radio mode, vector"
vector 171 SensorNetwork.host[10].wlan[0].radio.energyConsumer powerConsumption:vector ETV
attr interpolationmode sample-hold
attr source powerConsumptionChanged
attr title "Power consumption, vector"
vector 172 SensorNetwork.host[11].wlan[0].radio radioMode:vector ETV
attr interpolationmode sample-hold
attr source radioModeChanged
attr title "Radio mode, vector"
vector 173 SensorNetwork.host[11].wlan[0].radio.energyConsumer powerConsumption:vector ETV
attr interpolationmode sample-hold
attr source powerConsumptionChanged
attr title "Power consumption, vector"
vector 174 SensorNetwork.host[12].wlan[0].radio radioMode:vector ETV
attr interpolationmode sample-hold
attr source radioModeChanged
attr title "Radio mode, vector"
vector 175 SensorNetwork.host[12].wlan[0].radio.energyConsumer powerConsumption:vector ETV
attr interpolationmode sample-hold
attr source powerConsumptionChanged
attr title "Power consumption, vector"
vector 176 SensorNetwork.host[13].wlan[0].radio radioMode:vector ETV
attr interpolationmode sample-hold
attr source radioModeChanged
attr title "Radio mode, vector"
vector 177 SensorNetwork.host[13].wlan[0].radio.energyConsumer powerConsumption:vector ETV
attr interpolationmode sample-hold
attr source powerConsumptionChanged
attr title "Power consumption, vector"
vector 178 SensorNetwork.host[14].wlan[0].radio radioMode:vector ETV
attr interpolationmode sample-hold
attr source radioModeChanged
attr title "Radio mode, vector"
vector 179 SensorNetwork.host[14].wlan[0].radio.energyConsumer powerConsumption:vector ETV
attr interpolationmode sample-hold
attr source powerConsumptionChanged
attr title "Power consumption, vector"
vector 180 SensorNetwork.host[15].wlan[0].radio radioMode:vector ETV
attr interpolationmode sample-hold
attr source radioModeChanged
attr title "Radio mode, vector"
vector 181 SensorNetwork.host[15].wlan[0].radio.energyConsumer powerConsumption:vector ETV
attr interpolationmode sample-hold
attr source powerConsumptionChanged
attr title "Power consumption, vector"
vector 182 SensorNetwork.host[16].wlan[0].radio radioMode:vector ETV
attr interpolationmode sample-hold
attr source radioModeChanged
attr title "Radio mode, vector"
vector 183 SensorNetwork.host[16].wlan[0].radio.energyConsumer powerConsumption:vector ETV
attr interpolationmode sample-hold
attr source powerConsumptionChanged
attr title "Power consumption, vector"
vector 184 SensorNetwork.host[17].wlan[0].radio radioMode:vector ETV
attr interpolationmode sample-hold
attr source radioModeChanged
attr title "Radio mode, vector"
vector 185 SensorNetwork.host[17].wlan[0].radio.energyConsumer powerConsumption:vector ETV
attr interpolationmode sample-hold
attr source powerConsumptionChanged
attr title "Power consumption, vector"
vector 186 SensorNetwork.host[18].wlan[0].radio radioMode:vector ETV
attr interpolationmode sample-hold
attr source radioModeChanged
attr title "Radio mode, vector"
vector 187 SensorNetwork.host[18].wlan[0].radio.energyConsumer powerConsumption:vector ETV
attr interpolationmode sample-hold
attr source powerConsumptionChanged
attr title "Power consumption, vector"
vector 188 SensorNetwork.host[19].wlan[0].radio radioMode:vector ETV
attr interpolationmode sample-hold
attr source radioModeChanged
attr title "Radio mode, vector"
vector 189 SensorNetwork.host[19].wlan[0].radio.energyConsumer powerConsumption:vector ETV
attr interpolationmode sample-hold
attr source powerConsumptionChanged
attr title "Power consumption, vector"
vector 190 SensorNetwork.host[20].wlan[0].radio radioMode:vector ETV
attr interpolationmode sample-hold
attr source radioModeChanged
attr title "Radio mode, vector"
vector 191 SensorNetwork.host[20].wlan[0].radio.energyConsumer powerConsumption:vector ETV
attr interpolationmode sample-hold
attr source powerConsumptionChanged
attr title "Power consumption, vector"
vector 192 SensorNetwork.host[21].wlan[0].radio radioMode:vector ETV
attr interpolationmode sample-hold
attr source radioModeChanged
attr title "Radio mode, vector"
vector 193 SensorNetwork.host[21].wlan[0].radio.energyConsumer powerConsumption:vector ETV
attr interpolationmode sample-hold
attr source powerConsumptionChanged
attr title "Power consumption, vector"
vector 194 SensorNetwork.host[22].wlan[0].radio radioMode:vector ETV
attr interpolationmode sample-hold
attr source radioModeChanged
attr title "Radio mode, vector"
vector 195 SensorNetwork.host[22].wlan[0].radio.energyConsumer powerConsumption:vector ETV
attr interpolationmode sample-hold
attr source powerConsumptionChanged
attr title "Power consumption, vector"
vector 196 SensorNetwork.host[23].wlan[0].radio radioMode:vector ETV
attr interpolationmode sample-hold
attr source radioModeChanged
attr title "Radio mode, vector"
vector 197 SensorNetwork.host[23].wlan[0].radio.energyConsumer powerConsumption:vector ETV
attr interpolationmode sample-hold
attr source powerConsumptionChanged
attr title "Power consumption, vector"
vector 198 SensorNetwork.host[24].wlan[0].radio radioMode:vector ETV
attr interpolationmode sample-hold
attr source radioModeChanged
attr title "Radio mode, vector"
vector 199 SensorNetwork.host[24].wlan[0].radio.energyConsumer powerConsumption:vector ETV
attr interpolationmode sample-hold
attr source powerConsumptionChanged
attr title "Power consumption, vector"
vector 200 SensorNetwork.host[25].wlan[0].radio radioMode:vector ETV
attr interpolationmode sample-hold
attr source radioModeChanged
attr title "Radio mode, vector"
vector 201 SensorNetwork.host[25].wlan[0].radio.energyConsumer powerConsumption:vector ETV
attr interpolationmode sample-hold
attr source powerConsumptionChanged
attr title "Power consumption, vector"
vector 202 SensorNetwork.host[26].wlan[0].radio radioMode:vector ETV
attr interpolationmode sample-hold
attr source radioModeChanged
attr title "Radio mode, vector"
vector 203 SensorNetwork.host[26].wlan[0].radio.energyConsumer powerConsumption:vector ETV
attr interpolationmode sample-hold
attr source powerConsumptionChanged
attr title "Power consumption, vector"
vector 204 SensorNetwork.host[27].wlan[0].radio radioMode:vector ETV
attr interpolationmode sample-hold
attr source radioModeChanged
attr title "Radio mode, vector"
vector 205 SensorNetwork.host[27].wlan[0].radio.energyConsumer powerConsumption:vector ETV
attr interpolationmode sample-hold
attr source powerConsumptionChanged
attr title "Power consumption, vector"
vector 206 SensorNetwork.host[28].wlan[0].radio radioMode:vector ETV
attr interpolationmode sample-hold
attr source radioModeChanged
attr title "Radio mode, vector"
vector 207 SensorNetwork.host[28].wlan[0].radio.energyConsumer powerConsumption:vector ETV
attr interpolationmode sample-hold
attr source powerConsumptionChanged
attr title "Power consumption, vector"
vector 208 SensorNetwork.host[29].wlan[0].radio radioMode:vector ETV
attr interpolationmode sample-hold
attr source radioModeChanged
attr title "Radio mode, vector"
vector 209 SensorNetwork.host[29].wlan[0].radio.energyConsumer powerConsumption:vector ETV
attr interpolationmode sample-hold
attr source powerConsumptionChanged
attr title "Power consumption, vector"
vector 210 SensorNetwork.host[30].wlan[0].radio radioMode:vector ETV
attr interpolationmode sample-hold
attr source radioModeChanged
attr title "Radio mode, vector"
vector 211 SensorNetwork.host[30].wlan[0].radio.energyConsumer powerConsumption:vector ETV
attr interpolationmode sample-hold
attr source powerConsumptionChanged
attr title "Power consumption, vector"
vector 212 SensorNetwork.host[31].wlan[0].radio radioMode:vector ETV
attr interpolationmode sample-hold
attr source radioModeChanged
attr title "Radio mode, vector"
vector 213 SensorNetwork.host[31].wlan[0].radio.energyConsumer powerConsumption:vector ETV
attr interpolationmode sample-hold
attr source powerConsumptionChanged
attr title "Power consumption, vector"
vector 214 SensorNetwork.host[32].wlan[0].radio radioMode:vector ETV
attr interpolationmode sample-hold
attr source radioModeChanged
attr title "Radio mode, vector"
vector 215 SensorNetwork.host[32].wlan[0].radio.energyConsumer powerConsumption:vector ETV
attr interpolationmode sample-hold
attr source powerConsumptionChanged
attr title "Power consumption, vector"
vector 216 SensorNetwork.host[33].wlan[0].radio radioMode:vector ETV
attr interpolationmode sample-hold
attr source radioModeChanged
attr title "Radio mode, vector"
vector 217 SensorNetwork.host[33].wlan[0].radio.energyConsumer powerConsumption:vector ETV
attr interpolationmode sample-hold
attr source powerConsumptionChanged
attr title "Power consumption, vector"
vector 218 SensorNetwork.host[34].wlan[0].radio radioMode:vector ETV
attr interpolationmode sample-hold
attr source radioModeChanged
attr title "Radio mode, vector"
vector 219 SensorNetwork.host[34].wlan[0].radio.energyConsumer powerConsumption:vector ETV
attr interpolationmode sample-hold
attr source powerConsumptionChanged
attr title "Power consumption, vector"
vector 220 SensorNetwork.host[35].wlan[0].radio radioMode:vector ETV
attr interpolationmode sample-hold
attr source radioModeChanged
attr title "Radio mode, vector"
vector 221 SensorNetwork.host[35].wlan[0].radio.energyConsumer powerConsumption:vector ETV
attr interpolationmode sample-hold
attr source powerConsumptionChanged
attr title "Power consumption, vector"
vector 222 SensorNetwork.host[36].wlan[0].radio radioMode:vector ETV
attr interpolationmode sample-hold
attr source radioModeChanged
attr title "Radio mode, vector"
vector 223 SensorNetwork.host[36].wlan[0].radio.energyConsumer powerConsumption:vector ETV
attr interpolationmode sample-hold
attr source powerConsumptionChanged
attr title "Power consumption, vector"
vector 224 SensorNetwork.host[37].wlan[0].radio radioMode:vector ETV
attr interpolationmode sample-hold
attr source radioModeChanged
attr title "Radio mode, vector"
vector 225 SensorNetwork.host[37].wlan[0].radio.energyConsumer powerConsumption:vector ETV
attr interpolationmode sample-hold
attr source powerConsumptionChanged
attr title "Power consumption, vector"
vector 226 SensorNetwork.host[38].wlan[0].radio radioMode:vector ETV
attr interpolationmode sample-hold
attr source radioModeChanged
attr title "Radio mode, vector"
vector 227 SensorNetwork.host[38].wlan[0].radio.energyConsumer powerConsumption:vector ETV
attr interpolationmode sample-hold
attr source powerConsumptionChanged
attr title "Power consumption, vector"
vector 228 SensorNetwork.host[39].wlan[0].radio radioMode:vector ETV
attr interpolationmode sample-hold
attr source radioModeChanged
attr title "Radio mode, vector"
vector 229 SensorNetwork.host[39].wlan[0].radio.energyConsumer powerConsumption:vector ETV
attr interpolationmode sample-hold
attr source powerConsumptionChanged
attr title "Power consumption, vector"
vector 230 SensorNetwork.host[40].wlan[0].radio radioMode:vector ETV
attr interpolationmode sample-hold
attr source radioModeChanged
attr title "Radio mode, vector"
vector 231 SensorNetwork.host[40].wlan[0].radio.energyConsumer powerConsumption:vector ETV
attr interpolationmode sample-hold
attr source powerConsumptionChanged
attr title "Power consumption, vector"
vector 232 SensorNetwork.host[41].wlan[0].radio radioMode:vector ETV
attr interpolationmode sample-hold
attr source radioModeChanged
attr title "Radio mode, vector"
vector 233 SensorNetwork.host[41].wlan[0].radio.energyConsumer powerConsumption:vector ETV
attr interpolationmode sample-hold
attr source powerConsumptionChanged
attr title "Power consumption, vector"
vector 234 SensorNetwork.host[42].wlan[0].radio radioMode:vector ETV
attr interpolationmode sample-hold
attr source radioModeChanged
attr title "Radio mode, vector"
vector 235 SensorNetwork.host[42].wlan[0].radio.energyConsumer powerConsumption:vector ETV
attr interpolationmode sample-hold
attr source powerConsumptionChanged
attr title "Power consumption, vector"
vector 236 SensorNetwork.host[43].wlan[0].radio radioMode:vector ETV
attr interpolationmode sample-hold
attr source radioModeChanged
attr title "Radio mode, vector"
vector 237 SensorNetwork.host[43].wlan[0].radio.energyConsumer powerConsumption:vector ETV
attr interpolationmode sample-hold
attr source powerConsumptionChanged
attr title "Power consumption, vector"
vector 238 SensorNetwork.host[44].wlan[0].radio radioMode:vector ETV
attr interpolationmode sample-hold
attr source radioModeChanged
attr title "Radio mode, vector"
vector 239 SensorNetwork.host[44].wlan[0].radio.energyConsumer powerConsumption:vector ETV
attr interpolationmode sample-hold
attr source powerConsumptionChanged
attr title "Power consumption, vector"
vector 240 SensorNetwork.host[45].wlan[0].radio radioMode:vector ETV
attr interpolationmode sample-hold
attr source radioModeChanged
attr title "Radio mode, vector"
vector 241 SensorNetwork.host[45].wlan[0].radio.energyConsumer powerConsumption:vector ETV
attr interpolationmode sample-hold
attr source powerConsumptionChanged
attr title "Power consumption, vector"
vector 242 SensorNetwork.host[46].wlan[0].radio radioMode:vector ETV
attr interpolationmode sample-hold
attr source radioModeChanged
attr title "Radio mode, vector"
vector 243 SensorNetwork.host[46].wlan[0].radio.energyConsumer powerConsumption:vector ETV
attr interpolationmode sample-hold
attr source powerConsumptionChanged
attr title "Power consumption, vector"
vector 244 SensorNetwork.host[47].wlan[0].radio radioMode:vector ETV
attr interpolationmode sample-hold
attr source radioModeChanged
attr title "Radio mode, vector"
vector 245 SensorNetwork.host[47].wlan[0].radio.energyConsumer powerConsumption:vector ETV
attr interpolationmode sample-hold
attr source powerConsumptionChanged
attr title "Power consumption, vector"
vector 246 SensorNetwork.host[48].wlan[0].radio radioMode:vector ETV
attr interpolationmode sample-hold
attr source radioModeChanged
attr title "Radio mode, vector"
vector 247 SensorNetwork.host[48].wlan[0].radio.energyConsumer powerConsumption:vector ETV
attr interpolationmode sample-hold
attr source powerConsumptionChanged
attr title "Power consumption, vector"
vector 248 SensorNetwork.host[49].wlan[0].radio radioMode:vector ETV
attr interpolationmode sample-hold
attr source radioModeChanged
attr title "Radio mode, vector"
vector 249 SensorNetwork.host[49].wlan[0].radio.energyConsumer powerConsumption:vector ETV
attr interpolationmode sample-hold
attr source powerConsumptionChanged
attr title "Power consumption, vector"
vector 250 SensorNetwork.host[0].wlan[0].radio receptionState:vector ETV
attr interpolationmode sample-hold
attr source receptionStateChanged
attr title "Radio reception state, vector"
vector 251 SensorNetwork.host[1].wlan[0].radio receptionState:vector ETV
attr interpolationmode sample-hold
attr source receptionStateChanged
attr title "Radio reception state, vector"
vector 252 SensorNetwork.host[2].wlan[0].radio receptionState:vector ETV
attr interpolationmode sample-hold
attr source receptionStateChanged
attr title "Radio reception state, vector"
vector 253 SensorNetwork.host[3].wlan[0].radio receptionState:vector ETV
attr interpolationmode sample-hold
attr source receptionStateChanged
attr title "Radio reception state, vector"
vector 254 SensorNetwork.host[4].wlan[0].radio receptionState:vector ETV
attr interpolationmode sample-hold
attr source receptionStateChanged
attr title "Radio reception state, vector"
vector 255 SensorNetwork.host[5].wlan[0].radio receptionState:vector ETV
attr interpolationmode sample-hold
attr source receptionStateChanged
attr title "Radio reception state, vector"
vector 256 SensorNetwork.host[6].wlan[0].radio receptionState:vector ETV
attr interpolationmode sample-hold
attr source receptionStateChanged
attr title "Radio reception state, vector"
vector 257 SensorNetwork.host[7].wlan[0].radio receptionState:vector ETV
attr interpolationmode sample-hold
attr source receptionStateChanged
attr title "Radio reception state, vector"
vector 258 SensorNetwork.host[8].wlan[0].radio receptionState:vector ETV
attr interpolationmode sample-hold
attr source receptionStateChanged
attr title "Radio reception state, vector"
vector 259 SensorNetwork.host[9].wlan[0].radio receptionState:vector ETV
attr interpolationmode sample-hold
attr source receptionStateChanged
attr title "Radio reception state, vector"
vector 260 SensorNetwork.host[10].wlan[0].radio receptionState:vector ETV
attr interpolationmode sample-hold
attr source receptionStateChanged
attr title "Radio reception state, vector"
vector 261 SensorNetwork.host[11].wlan[0].radio receptionState:vector ETV
attr interpolationmode sample-hold
attr source receptionStateChanged
attr title "Radio reception state, vector"
vector 262 SensorNetwork.host[12].wlan[0].radio receptionState:vector ETV
attr interpolationmode sample-hold
attr source receptionStateChanged
attr title "Radio reception state, vector"
vector 263 SensorNetwork.host[13].wlan[0].radio receptionState:vector ETV
attr interpolationmode sample-hold
attr source receptionStateChanged
attr title "Radio reception state, vector"
vector 264 SensorNetwork.host[14].wlan[0].radio receptionState:vector ETV
attr interpolationmode sample-hold
attr source receptionStateChanged
attr title "Radio reception state, vector"
vector 265 SensorNetwork.host[15].wlan[0].radio receptionState:vector ETV
attr interpolationmode sample-hold
attr source receptionStateChanged
attr title "Radio reception state, vector"
vector 266 SensorNetwork.host[16].wlan[0].radio receptionState:vector ETV
attr interpolationmode sample-hold
attr source receptionStateChanged
attr title "Radio reception state, vector"
vector 267 SensorNetwork.host[17].wlan[0].radio receptionState:vector ETV
attr interpolationmode sample-hold
attr source receptionStateChanged
attr title "Radio reception state, vector"
vector 268 SensorNetwork.host[18].wlan[0].radio receptionState:vector ETV
attr interpolationmode sample-hold
attr source receptionStateChanged
attr title "Radio reception state, vector"
vector 269 SensorNetwork.host[19].wlan[0].radio receptionState:vector ETV
attr interpolationmode sample-hold
attr source receptionStateChanged
attr title "Radio reception state, vector"
vector 270 SensorNetwork.host[20].wlan[0].radio receptionState:vector ETV
attr interpolationmode sample-hold
attr source receptionStateChanged
attr title "Radio reception state, vector"
vector 271 SensorNetwork.host[21].wlan[0].radio receptionState:vector ETV
attr interpolationmode sample-hold
attr source receptionStateChanged
attr title "Radio reception state, vector"
vector 272 SensorNetwork.host[22].wlan[0].radio receptionState:vector ETV
attr interpolationmode sample-hold
attr source receptionStateChanged
attr title "Radio reception state, vector"
vector 273 SensorNetwork.host[23].wlan[0].radio receptionState:vector ETV
attr interpolationmode sample-hold
attr source receptionStateChanged
attr title "Radio reception state, vector"
vector 274 SensorNetwork.host[24].wlan[0].radio receptionState:vector ETV
attr interpolationmode sample-hold
attr source receptionStateChanged
attr title "Radio reception state, vector"
vector 275 SensorNetwork.host[25].wlan[0].radio receptionState:vector ETV
attr interpolationmode sample-hold
attr source receptionStateChanged
attr title "Radio reception state, vector"
vector 276 SensorNetwork.host[26].wlan[0].radio receptionState:vector ETV
attr interpolationmode sample-hold
attr source receptionStateChanged
attr title "Radio reception state, vector"
vector 277 SensorNetwork.host[27].wlan[0].radio receptionState:vector ETV
attr interpolationmode sample-hold
attr source receptionStateChanged
attr title "Radio reception state, vector"
vector 278 SensorNetwork.host[28].wlan[0].radio receptionState:vector ETV
attr interpolationmode sample-hold
attr source receptionStateChanged
attr title "Radio reception state, vector"
vector 279 SensorNetwork.host[29].wlan[0].radio receptionState:vector ETV
attr interpolationmode sample-hold
attr source receptionStateChanged
attr title "Radio reception state, vector"
vector 280 SensorNetwork.host[30].wlan[0].radio receptionState:vector ETV
attr interpolationmode sample-hold
attr source receptionStateChanged
attr title "Radio reception state, vector"
vector 281 SensorNetwork.host[31].wlan[0].radio receptionState:vector ETV
attr interpolationmode sample-hold
attr source receptionStateChanged
attr title "Radio reception state, vector"
vector 282 SensorNetwork.host[32].wlan[0].radio receptionState:vector ETV
attr interpolationmode sample-hold
attr source receptionStateChanged
attr title "Radio reception state, vector"
vector 283 SensorNetwork.host[33].wlan[0].radio receptionState:vector ETV
attr interpolationmode sample-hold
attr source receptionStateChanged
attr title "Radio reception state, vector"
vector 284 SensorNetwork.host[34].wlan[0].radio receptionState:vector ETV
attr interpolationmode sample-hold
attr source receptionStateChanged
attr title "Radio reception state, vector"
vector 285 SensorNetwork.host[35].wlan[0].radio receptionState:vector ETV
attr interpolationmode sample-hold
attr source receptionStateChanged
attr title "Radio reception state, vector"
vector 286 SensorNetwork.host[36].wlan[0].radio receptionState:vector ETV
attr interpolationmode sample-hold
attr source receptionStateChanged
attr title "Radio reception state, vector"
vector 287 SensorNetwork.host[37].wlan[0].radio receptionState:vector ETV
attr interpolationmode sample-hold
attr source receptionStateChanged
attr title "Radio reception state, vector"
vector 288 SensorNetwork.host[38].wlan[0].radio receptionState:vector ETV
attr interpolationmode sample-hold
attr source receptionStateChanged
attr title "Radio reception state, vector"
vector 289 SensorNetwork.host[39].wlan[0].radio receptionState:vector ETV
attr interpolationmode sample-hold
attr source receptionStateChanged
attr title "Radio reception state, vector"
vector 290 SensorNetwork.host[40].wlan[0].radio receptionState:vector ETV
attr interpolationmode sample-hold
attr source receptionStateChanged
attr title "Radio reception state, vector"
vector 291 SensorNetwork.host[41].wlan[0].radio receptionState:vector ETV
attr interpolationmode sample-hold
attr source receptionStateChanged
attr title "Radio reception state, vector"
vector 292 SensorNetwork.host[42].wlan[0].radio receptionState:vector ETV
attr interpolationmode sample-hold
attr source receptionStateChanged
attr title "Radio reception state, vector"
vector 293 SensorNetwork.host[43].wlan[0].radio receptionState:vector ETV
attr interpolationmode sample-hold
attr source receptionStateChanged
attr title "Radio reception state, vector"
vector 294 SensorNetwork.host[44].wlan[0].radio receptionState:vector ETV
attr interpolationmode sample-hold
attr source receptionStateChanged
attr title "Radio reception state, vector"
vector 295 SensorNetwork.host[45].wlan[0].radio receptionState:vector ETV
attr interpolationmode sample-hold
attr source receptionStateChanged
attr title "Radio reception state, vector"
vector 296 SensorNetwork.host[46].wlan[0].radio receptionState:vector ETV
attr interpolationmode sample-hold
attr source receptionStateChanged
attr title "Radio reception state, vector"
vector 297 SensorNetwork.host[47].wlan[0].radio receptionState:vector ETV
attr interpolationmode sample-hold
attr source receptionStateChanged
attr title "Radio reception state, vector"
vector 298 SensorNetwork.host[48].wlan[0].radio receptionState:vector ETV
attr interpolationmode sample-hold
attr source receptionStateChanged
attr title "Radio reception state, vector"
vector 299 SensorNetwork.host[49].wlan[0].radio receptionState:vector ETV
attr interpolationmode sample-hold
attr source receptionStateChanged
attr title "Radio reception state, vector"
vector 300 SensorNetwork.host[9].wlan[0].queue rcvdPk:vector(packetBytes) ETV
attr interpolationmode none
attr title "received packets, vector(packetBytes)"
vector 301 SensorNetwork.host[9].wlan[0].queue queueingTime:vector ETV
attr interpolationmode none
attr title "queueing time, vector"
vector 302 SensorNetwork.host[9].wlan[0].mac rcvdPkFromHL:vector(packetBytes) ETV
attr interpolationmode none
attr source packetReceivedFromUpper
attr title "packets received from higher layer, vector(packetBytes)"
vector 303 SensorNetwork.host[9].wlan[0].radio transmissionState:vector ETV
attr interpolationmode sample-hold
attr source transmissionStateChanged
attr title "Radio transmission state, vector"
vector 304 SensorNetwork.host[9].wlan[0].mac sentDownPk:vector(packetBytes) ETV
attr interpolationmode none
attr source packetSentToLower
attr title "packets sent to lower layer, vector(packetBytes)"
vector 305 SensorNetwork.host[0].wlan[0].mac rcvdPkFromLL:vector(packetBytes) ETV
attr interpolationmode none
attr source packetReceivedFromLower
attr title "packets received from lower layer, vector(packetBytes)"
vector 306 SensorNetwork.host[0].wlan[0].mac passedUpPk:vector(packetBytes) ETV
attr interpolationmode none
attr source packetSentToUpper
attr title "packets passed to higher layer, vector(packetBytes)"
vector 307 SensorNetwork.host[21].wlan[0].mac rcvdPkFromLL:vector(packetBytes) ETV
attr interpolationmode none
attr source packetReceivedFromLower
attr title "packets received from lower layer, vector(packetBytes)"
vector 308 SensorNetwork.host[21].wlan[0].mac passedUpPk:vector(packetBytes) ETV
attr interpolationmode none
attr source packetSentToUpper
attr title "packets passed to higher layer, vector(packetBytes)"
vector 309 SensorNetwork.host[20].wlan[0].mac rcvdPkFromLL:vector(packetBytes) ETV
attr interpolationmode none
attr source packetReceivedFromLower
attr title "packets received from lower layer, vector(packetBytes)"
vector 310 SensorNetwork.host[20].wlan[0].mac passedUpPk:vector(packetBytes) ETV
attr interpolationmode none
attr source packetSentToUpper
attr title "packets passed to higher layer, vector(packetBytes)"
vector 311 SensorNetwork.host[7].wlan[0].mac rcvdPkFromLL:vector(packetBytes) ETV
attr interpolationmode none
attr source packetReceivedFromLower
attr title "packets received from lower layer, vector(packetBytes)"
vector 312 SensorNetwork.host[7].wlan[0].mac passedUpPk:vector(packetBytes) ETV
attr interpolationmode none
attr source packetSentToUpper
attr title "packets passed to higher layer, vector(packetBytes)"
vector 313 SensorNetwork.host[18].wlan[0].queue rcvdPk:vector(packetBytes) ETV
attr interpolationmode none
attr title "received packets, vector(packetBytes)"
vector 314 SensorNetwork.host[18].wlan[0].queue queueingTime:vector ETV
attr interpolationmode none
attr title "queueing time, vector"
vector 315 SensorNetwork.host[18].wlan[0].mac rcvdPkFromHL:vector(packetBytes) ETV
attr interpolationmode none
attr source packetReceivedFromUpper
attr title "packets received from higher layer, vector(packetBytes)"
vector 316 SensorNetwork.host[18].wlan[0].radio transmissionState:vector ETV
attr interpolationmode sample-hold
attr source transmissionStateChanged
attr title "Radio transmission state, vector"
vector 317 SensorNetwork.host[18].wlan[0].mac sentDownPk:vector(packetBytes) ETV
attr interpolationmode none
attr source packetSentToLower
attr title "packets sent to lower layer, vector(packetBytes)"
vector 318 SensorNetwork.host[31].wlan[0].mac rcvdPkFromLL:vector(packetBytes) ETV
attr interpolationmode none
attr source packetReceivedFromLower
attr title "packets received from lower layer, vector(packetBytes)"
vector 319 SensorNetwork.host[31].wlan[0].mac passedUpPk:vector(packetBytes) ETV
attr interpolationmode none
attr source packetSentToUpper
attr title "packets passed to higher layer, vector(packetBytes)"
vector 320 SensorNetwork.host[43].wlan[0].mac rcvdPkFromLL:vector(packetBytes) ETV
attr interpolationmode none
attr source packetReceivedFromLower
attr title "packets received from lower layer, vector(packetBytes)"
vector 321 SensorNetwork.host[43].wlan[0].mac passedUpPk:vector(packetBytes) ETV
attr interpolationmode none
attr source packetSentToUpper
attr title "packets passed to higher layer, vector(packetBytes)"
vector 322 SensorNetwork.host[35].wlan[0].mac rcvdPkFromLL:vector(packetBytes) ETV
attr interpolationmode none
attr source packetReceivedFromLower
attr title "packets received from lower layer, vector(packetBytes)"
vector 323 SensorNetwork.host[35].wlan[0].mac passedUpPk:vector(packetBytes) ETV
attr interpolationmode none
attr source packetSentToUpper
attr title "packets passed to higher layer, vector(packetBytes)"
vector 324 SensorNetwork.host[2].wlan[0].mac rcvdPkFromLL:vector(packetBytes) ETV
attr interpolationmode none
attr source packetReceivedFromLower
attr title "packets received from lower layer, vector(packetBytes)"
vector 325 SensorNetwork.host[2].wlan[0].mac passedUpPk:vector(packetBytes) ETV
attr interpolationmode none
attr source packetSentToUpper
attr title "packets passed to higher layer, vector(packetBytes)"
vector 326 SensorNetwork.host[44].wlan[0].queue rcvdPk:vector(packetBytes) ETV
attr interpolationmode none
attr title "received packets, vector(packetBytes)"
vector 327 SensorNetwork.host[44].wlan[0].queue queueingTime:vector ETV
attr interpolationmode none
attr title "queueing time, vector"
vector 328 SensorNetwork.host[44].wlan[0].mac rcvdPkFromHL:vector(packetBytes) ETV
attr interpolationmode none
attr source packetReceivedFromUpper
attr title "packets received from higher layer, vector(packetBytes)"
vector 329 SensorNetwork.host[44].wlan[0].radio transmissionState:vector ETV
attr interpolationmode sample-hold
attr source transmissionStateChanged
attr title "Radio transmission state, vector"
vector 330 SensorNetwork.host[44].wlan[0].mac sentDownPk:vector(packetBytes) ETV
attr interpolationmode none
attr source packetSentToLower
attr title "packets sent to lower layer, vector(packetBytes)"
vector 331 SensorNetwork.host[3].wlan[0].mac rcvdPkFromLL:vector(packetBytes) ETV
attr interpolationmode none
attr source packetReceivedFromLower
attr title "packets received from lower layer, vector(packetBytes)"
vector 332 SensorNetwork.host[3].wlan[0].mac passedUpPk:vector(packetBytes) ETV
attr interpolationmode none
attr source packetSentToUpper
attr title "packets passed to higher layer, vector(packetBytes)"
vector 333 SensorNetwork.host[30].wlan[0].mac rcvdPkFromLL:vector(packetBytes) ETV
attr interpolationmode none
attr source packetReceivedFromLower
attr title "packets received from lower layer, vector(packetBytes)"
vector 334 SensorNetwork.host[30].wlan[0].mac passedUpPk:vector(packetBytes) ETV
attr interpolationmode none
attr source packetSentToUpper
attr title "packets passed to higher layer, vector(packetBytes)"
vector 335 SensorNetwork.host[17].wlan[0].mac rcvdPkFromLL:vector(packetBytes) ETV
attr interpolationmode none
attr source packetReceivedFromLower
attr title "packets received from lower layer, vector(packetBytes)"
vector 336 SensorNetwork.host[17].wlan[0].mac passedUpPk:vector(packetBytes) ETV
attr interpolationmode none
attr source packetSentToUpper
attr title "packets passed to higher layer, vector(packetBytes)"
vector 337 SensorNetwork.host[42].wlan[0].queue rcvdPk:vector(packetBytes) ETV
attr interpolationmode none
attr title "received packets, vector(packetBytes)"
vector 338 SensorNetwork.host[42].wlan[0].queue queueingTime:vector ETV
attr interpolationmode none
attr title "queueing time, vector"
vector 339 SensorNetwork.host[42].wlan[0].mac rcvdPkFromHL:vector(packetBytes) ETV
attr interpolationmode none
attr source packetReceivedFromUpper
attr title "packets received from higher layer, vector(packetBytes)"
vector 340 SensorNetwork.host[42].wlan[0].radio transmissionState:vector ETV
attr interpolationmode sample-hold
attr source transmissionStateChanged
attr title "Radio transmission state, vector"
vector 341 SensorNetwork.host[42].wlan[0].mac sentDownPk:vector(packetBytes) ETV
attr interpolationmode none
attr source packetSentToLower
attr title "packets sent to lower layer, vector(packetBytes)"
vector 342 SensorNetwork.host[28].wlan[0].queue rcvdPk:vector(packetBytes) ETV
attr interpolationmode none
attr title "received packets, vector(packetBytes)"
vector 343 SensorNetwork.host[28].wlan[0].queue queueingTime:vector ETV
attr interpolationmode none
attr title "queueing time, vector"
vector 344 SensorNetwork.host[28].wlan[0].mac rcvdPkFromHL:vector(packetBytes) ETV
attr interpolationmode none
attr source packetReceivedFromUpper
attr title "packets received from higher layer, vector(packetBytes)"
vector 345 SensorNetwork.host[28].wlan[0].radio transmissionState:vector ETV
attr interpolationmode sample-hold
attr source transmissionStateChanged
attr title "Radio transmission state, vector"
vector 346 SensorNetwork.host[28].wlan[0].mac sentDownPk:vector(packetBytes) ETV
attr interpolationmode none
attr source packetSentToLower
attr title "packets sent to lower layer, vector(packetBytes)"
vector 347 SensorNetwork.host[36].wlan[0].mac rcvdPkFromLL:vector(packetBytes) ETV
attr interpolationmode none
attr source packetReceivedFromLower
attr title "packets received from lower layer, vector(packetBytes)"
vector 348 SensorNetwork.host[36].wlan[0].mac passedUpPk:vector(packetBytes) ETV
attr interpolationmode none
attr source packetSentToUpper
attr title "packets passed to higher layer, vector(packetBytes)"
vector 349 SensorNetwork.host[11].wlan[0].mac rcvdPkFromLL:vector(packetBytes) ETV
attr interpolationmode none
attr source packetReceivedFromLower
attr title "packets received from lower layer, vector(packetBytes)"
vector 350 SensorNetwork.host[11].wlan[0].mac passedUpPk:vector(packetBytes) ETV
attr interpolationmode none
attr source packetSentToUpper
attr title "packets passed to higher layer, vector(packetBytes)"
vector 351 SensorNetwork.host[36].wlan[0].queue rcvdPk:vector(packetBytes) ETV
attr interpolationmode none
attr title "received packets, vector(packetBytes)"
vector 352 SensorNetwork.host[36].wlan[0].queue queueingTime:vector ETV
attr interpolationmode none
attr title "queueing time, vector"
vector 353 SensorNetwork.host[36].wlan[0].mac rcvdPkFromHL:vector(packetBytes) ETV
attr interpolationmode none
attr source packetReceivedFromUpper
attr title "packets received from higher layer, vector(packetBytes)"
vector 354 SensorNetwork.host[36].wlan[0].radio transmissionState:vector ETV
attr interpolationmode sample-hold
attr source transmissionStateChanged
attr title "Radio transmission state, vector"
vector 355 SensorNetwork.host[36].wlan[0].mac sentDownPk:vector(packetBytes) ETV
attr interpolationmode none
attr source packetSentToLower
attr title "packets sent to lower layer, vector(packetBytes)"
vector 356 SensorNetwork.host[1].wlan[0].mac rcvdPkFromLL:vector(packetBytes) ETV
attr interpolationmode none
attr source packetReceivedFromLower
attr title "packets received from lower layer, vector(packetBytes)"
vector 357 SensorNetwork.host[1].wlan[0].mac passedUpPk:vector(packetBytes) ETV
attr interpolationmode none
attr source packetSentToUpper
attr title "packets passed to higher layer, vector(packetBytes)"
vector 358 SensorNetwork.host[28].wlan[0].mac rcvdPkFromLL:vector(packetBytes) ETV
attr interpolationmode none
attr source packetReceivedFromLower
attr title "packets received from lower layer, vector(packetBytes)"
vector 359 SensorNetwork.host[28].wlan[0].mac passedUpPk:vector(packetBytes) ETV
attr interpolationmode none
attr source packetSentToUpper
attr title "packets passed to higher layer, vector(packetBytes)"
vector 360 SensorNetwork.host[22].wlan[0].queue rcvdPk:vector(packetBytes) ETV
attr interpolationmode none
attr title "received packets, vector(packetBytes)"
vector 361 SensorNetwork.host[22].wlan[0].queue queueingTime:vector ETV
attr interpolationmode none
attr title "queueing time, vector"
vector 362 SensorNetwork.host[22].wlan[0].mac rcvdPkFromHL:vector(packetBytes) ETV
attr interpolationmode none
attr source packetReceivedFromUpper
attr title "packets received from higher layer, vector(packetBytes)"
vector 363 SensorNetwork.host[22].wlan[0].radio transmissionState:vector ETV
attr interpolationmode sample-hold
attr source transmissionStateChanged
attr title "Radio transmission state, vector"
vector 364 SensorNetwork.host[22].wlan[0].mac sentDownPk:vector(packetBytes) ETV
attr interpolationmode none
attr source packetSentToLower
attr title "packets sent to lower layer, vector(packetBytes)"
vector 365 SensorNetwork.host[38].wlan[0].mac rcvdPkFromLL:vector(packetBytes) ETV
attr interpolationmode none
attr source packetReceivedFromLower
attr title "packets received from lower layer, vector(packetBytes)"
vector 366 SensorNetwork.host[38].wlan[0].mac passedUpPk:vector(packetBytes) ETV
attr interpolationmode none
attr source packetSentToUpper
attr title "packets passed to higher layer, vector(packetBytes)"
vector 367 SensorNetwork.host[24].wlan[0].mac rcvdPkFromLL:vector(packetBytes) ETV
attr interpolationmode none
attr source packetReceivedFromLower
attr title "packets received from lower layer, vector(packetBytes)"
vector 368 SensorNetwork.host[24].wlan[0].mac passedUpPk:vector(packetBytes) ETV
attr interpolationmode none
attr source packetSentToUpper
attr title "packets passed to higher layer, vector(packetBytes)"
vector 369 SensorNetwork.host[15].wlan[0].mac rcvdPkFromLL:vector(packetBytes) ETV
attr interpolationmode none
attr source packetReceivedFromLower
attr title "packets received from lower layer, vector(packetBytes)"
vector 370 SensorNetwork.host[15].wlan[0].mac passedUpPk:vector(packetBytes) ETV
attr interpolationmode none
attr source packetSentToUpper
attr title "packets passed to higher layer, vector(packetBytes)"
vector 371 SensorNetwork.host[40].wlan[0].mac rcvdPkFromLL:vector(packetBytes) ETV
attr interpolationmode none
attr source packetReceivedFromLower
attr title "packets received from lower layer, vector(packetBytes)"
vector 372 SensorNetwork.host[40].wlan[0].mac passedUpPk:vector(packetBytes) ETV
attr interpolationmode none
attr source packetSentToUpper
attr title "packets passed to higher layer, vector(packetBytes)"
vector 373 SensorNetwork.host[48].wlan[0].mac rcvdPkFromLL:vector(packetBytes) ETV
attr interpolationmode none
attr source packetReceivedFromLower
attr title "packets received from lower layer, vector(packetBytes)"
vector 374 SensorNetwork.host[48].wlan[0].mac passedUpPk:vector(packetBytes) ETV
attr interpolationmode none
attr source packetSentToUpper
attr title "packets passed to higher layer, vector(packetBytes)"
vector 375 SensorNetwork.host[38].wlan[0].queue rcvdPk:vector(packetBytes) ETV
attr interpolationmode none
attr title "received packets, vector(packetBytes)"
vector 376 SensorNetwork.host[38].wlan[0].queue queueingTime:vector ETV
attr interpolationmode none
attr title "queueing time, vector"
vector 377 SensorNetwork.host[38].wlan[0].mac rcvdPkFromHL:vector(packetBytes) ETV
attr interpolationmode none
attr source packetReceivedFromUpper
attr title "packets received from higher layer, vector(packetBytes)"
vector 378 SensorNetwork.host[38].wlan[0].radio transmissionState:vector ETV
attr interpolationmode sample-hold
attr source transmissionStateChanged
attr title "Radio transmission state, vector"
vector 379 SensorNetwork.host[38].wlan[0].mac sentDownPk:vector(packetBytes) ETV
attr interpolationmode none
attr source packetSentToLower
attr title "packets sent to lower layer, vector(packetBytes)"
vector 380 SensorNetwork.host[22].wlan[0].mac rcvdPkFromLL:vector(packetBytes) ETV
attr interpolationmode none
attr source packetReceivedFromLower
attr title "packets received from lower layer, vector(packetBytes)"
vector 381 SensorNetwork.host[22].wlan[0].mac passedUpPk:vector(packetBytes) ETV
attr interpolationmode none
attr source packetSentToUpper
attr title "packets passed to higher layer, vector(packetBytes)"
vector 382 SensorNetwork.host[1].wlan[0].queue rcvdPk:vector(packetBytes) ETV
attr interpolationmode none
attr title "received packets, vector(packetBytes)"
vector 383 SensorNetwork.host[1].wlan[0].queue queueingTime:vector ETV
attr interpolationmode none
attr title "queueing time, vector"
vector 384 SensorNetwork.host[1].wlan[0].mac rcvdPkFromHL:vector(packetBytes) ETV
attr interpolationmode none
attr source packetReceivedFromUpper
attr title "packets received from higher layer, vector(packetBytes)"
vector 385 SensorNetwork.host[1].wlan[0].radio transmissionState:vector ETV
attr interpolationmode sample-hold
attr source transmissionStateChanged
attr title "Radio transmission state, vector"
vector 386 SensorNetwork.host[1].wlan[0].mac sentDownPk:vector(packetBytes) ETV
attr interpolationmode none
attr source packetSentToLower
attr title "packets sent to lower layer, vector(packetBytes)"
vector 387 SensorNetwork.host[35].wlan[0].queue rcvdPk:vector(packetBytes) ETV
attr interpolationmode none
attr title "received packets, vector(packetBytes)"
vector 388 SensorNetwork.host[35].wlan[0].queue queueingTime:vector ETV
attr interpolationmode none
attr title "queueing time, vector"
vector 389 SensorNetwork.host[35].wlan[0].mac rcvdPkFromHL:vector(packetBytes) ETV
attr interpolationmode none
attr source packetReceivedFromUpper
attr title "packets received from higher layer, vector(packetBytes)"
vector 390 SensorNetwork.host[35].wlan[0].radio transmissionState:vector ETV
attr interpolationmode sample-hold
attr source transmissionStateChanged
attr title "Radio transmission state, vector"
vector 391 SensorNetwork.host[35].wlan[0].mac sentDownPk:vector(packetBytes) ETV
attr interpolationmode none
attr source packetSentToLower
attr title "packets sent to lower layer, vector(packetBytes)"
vector 392 SensorNetwork.host[18].wlan[0].mac rcvdPkFromLL:vector(packetBytes) ETV
attr interpolationmode none
attr source packetReceivedFromLower
attr title "packets received from lower layer, vector(packetBytes)"
vector 393 SensorNetwork.host[18].wlan[0].mac passedUpPk:vector(packetBytes) ETV
attr interpolationmode none
attr source packetSentToUpper
attr title "packets passed to higher layer, vector(packetBytes)"
vector 394 SensorNetwork.host[30].wlan[0].queue rcvdPk:vector(packetBytes) ETV
attr interpolationmode none
attr title "received packets, vector(packetBytes)"
vector 395 SensorNetwork.host[30].wlan[0].queue queueingTime:vector ETV
attr interpolationmode none
attr title "queueing time, vector"
vector 396 SensorNetwork.host[30].wlan[0].mac rcvdPkFromHL:vector(packetBytes) ETV
attr interpolationmode none
attr source packetReceivedFromUpper
attr title "packets received from higher layer, vector(packetBytes)"
vector 397 SensorNetwork.host[30].wlan[0].radio transmissionState:vector ETV
attr interpolationmode sample-hold
attr source transmissionStateChanged
attr title "Radio transmission state, vector"
vector 398 SensorNetwork.host[30].wlan[0].mac sentDownPk:vector(packetBytes) ETV
attr interpolationmode none
attr source packetSentToLower
attr title "packets sent to lower layer, vector(packetBytes)"
vector 399 SensorNetwork.host[44].wlan[0].mac rcvdPkFromLL:vector(packetBytes) ETV
attr interpolationmode none
attr source packetReceivedFromLower
attr title "packets received from lower layer, vector(packetBytes)"
vector 400 SensorNetwork.host[44].wlan[0].mac passedUpPk:vector(packetBytes) ETV
attr interpolationmode none
attr source packetSentToUpper
attr title "packets passed to higher layer, vector(packetBytes)"
vector 401 SensorNetwork.host[42].wlan[0].mac rcvdPkFromLL:vector(packetBytes) ETV
attr interpolationmode none
attr source packetReceivedFromLower
attr title "packets received from lower layer, vector(packetBytes)"
vector 402 SensorNetwork.host[42].wlan[0].mac passedUpPk:vector(packetBytes) ETV
attr interpolationmode none
attr source packetSentToUpper
attr title "packets passed to higher layer, vector(packetBytes)"
vector 403 SensorNetwork.host[39].wlan[0].queue rcvdPk:vector(packetBytes) ETV
attr interpolationmode none
attr title "received packets, vector(packetBytes)"
vector 404 SensorNetwork.host[39].wlan[0].queue queueingTime:vector ETV
attr interpolationmode none
attr title "queueing time, vector"
vector 405 SensorNetwork.host[39].wlan[0].mac rcvdPkFromHL:vector(packetBytes) ETV
attr interpolationmode none
attr source packetReceivedFromUpper
attr title "packets received from higher layer, vector(packetBytes)"
vector 406 SensorNetwork.host[39].wlan[0].radio transmissionState:vector ETV
attr interpolationmode sample-hold
attr source transmissionStateChanged
attr title "Radio transmission state, vector"
vector 407 SensorNetwork.host[39].wlan[0].mac sentDownPk:vector(packetBytes) ETV
attr interpolationmode none
attr source packetSentToLower
attr title "packets sent to lower layer, vector(packetBytes)"
vector 408 SensorNetwork.host[37].wlan[0].mac rcvdPkFromLL:vector(packetBytes) ETV
attr interpolationmode none
attr source packetReceivedFromLower
attr title "packets received from lower layer, vector(packetBytes)"
vector 409 SensorNetwork.host[37].wlan[0].mac passedUpPk:vector(packetBytes) ETV
attr interpolationmode none
attr source packetSentToUpper
attr title "packets passed to higher layer, vector(packetBytes)"
vector 410 SensorNetwork.host[29].wlan[0].queue rcvdPk:vector(packetBytes) ETV
attr interpolationmode none
attr title "received packets, vector(packetBytes)"
vector 411 SensorNetwork.host[29].wlan[0].queue queueingTime:vector ETV
attr interpolationmode none
attr title "queueing time, vector"
vector 412 SensorNetwork.host[29].wlan[0].mac rcvdPkFromHL:vector(packetBytes) ETV
attr interpolationmode none
attr source packetReceivedFromUpper
attr title "packets received from higher layer, vector(packetBytes)"
vector 413 SensorNetwork.host[29].wlan[0].radio transmissionState:vector ETV
attr interpolationmode sample-hold
attr source transmissionStateChanged
attr title "Radio transmission state, vector"
vector 414 SensorNetwork.host[29].wlan[0].mac sentDownPk:vector(packetBytes) ETV
attr interpolationmode none
attr source packetSentToLower
attr title "packets sent to lower layer, vector(packetBytes)"
vector 415 SensorNetwork.host[16].wlan[0].mac rcvdPkFromLL:vector(packetBytes) ETV
attr interpolationmode none
attr source packetReceivedFromLower
attr title "packets received from lower layer, vector(packetBytes)"
vector 416 SensorNetwork.host[16].wlan[0].mac passedUpPk:vector(packetBytes) ETV
attr interpolationmode none
attr source packetSentToUpper
attr title "packets passed to higher layer, vector(packetBytes)"
vector 417 SensorNetwork.host[27].wlan[0].mac rcvdPkFromLL:vector(packetBytes) ETV
attr interpolationmode none
attr source packetReceivedFromLower
attr title "packets received from lower layer, vector(packetBytes)"
vector 418 SensorNetwork.host[27].wlan[0].mac passedUpPk:vector(packetBytes) ETV
attr interpolationmode none
attr source packetSentToUpper
attr title "packets passed to higher layer, vector(packetBytes)"
vector 419 SensorNetwork.host[41].wlan[0].mac rcvdPkFromLL:vector(packetBytes) ETV
attr interpolationmode none
attr source packetReceivedFromLower
attr title "packets received from lower layer, vector(packetBytes)"
vector 420 SensorNetwork.host[41].wlan[0].mac passedUpPk:vector(packetBytes) ETV
attr interpolationmode none
[...]
616	25275	13.936923791612	0
616	33660	18.582266388816	1
616	33661	18.582266388816	2
616	33711	18.582490388816	1
616	33711	18.582490388816	0
616	43079	23.22783298602	1
616	43080	23.22783298602	2
616	43130	23.22805698602	1
616	43130	23.22805698602	0
616	52314	27.873399583224	1
616	52315	27.873399583224	2
616	52365	27.873623583224	1
616	52365	27.873623583224	0
616	61067	32.518966180428	1
616	61068	32.518966180428	2
616	61118	32.519190180428	1
616	61118	32.519190180428	0
616	69528	37.164532777632	1
616	69529	37.164532777632	2
616	69579	37.164756777632	1
616	69579	37.164756777632	0
616	78291	41.810099374836	1
616	78292	41.810099374836	2
616	78342	41.810323374836	1
616	78342	41.810323374836	0
616	86753	46.45566597204	1
616	86754	46.45566597204	2
616	86804	46.45588997204	1
616	86804	46.45588997204	0
616	95228	51.101232569244	1
616	95229	51.101232569244	2
616	95279	51.101456569244	1
616	95279	51.101456569244	0
616	103881	55.746799166448	1
616	103882	55.746799166448	2
616	103932	55.747023166448	1
616	103932	55.747023166448	0
616	112217	60.392365763652	1
616	112218	60.392365763652	2
616	112268	60.392589763652	1
616	112268	60.392589763652	0
616	120352	65.037932360856	1
616	120353	65.037932360856	2
616	120403	65.038156360856	1
616	120403	65.038156360856	0
617	7450	4.645566597204	28
617	15700	9.291133194408	28
617	25224	13.936699791612	28
617	33660	18.582266388816	28
617	43079	23.22783298602	28
617	52314	27.873399583224	28
617	61067	32.518966180428	28
617	69528	37.164532777632	28
617	78291	41.810099374836	28
617	86753	46.45566597204	28
617	95228	51.101232569244	28
617	103881	55.746799166448	28
617	112217	60.392365763652	28
617	120352	65.037932360856	28
618	7566	4.679130915208	28
618	15863	9.358261830416	28
618	25501	14.037392745624	28
618	34123	18.716523660832	28
618	43695	23.39565457604	28
618	52637	28.074785491248	28
618	61393	32.753916406456	28
618	70118	37.433047321664	28
618	78774	42.112178236872	28
618	87679	46.79130915208	28
618	96148	51.470440067288	28
618	104631	56.149570982496	28
618	112890	60.828701897704	28
619	7566	4.679130915208	0
619	15863	9.358261830416	0
619	25501	14.037392745624	0
619	34123	18.716523660832	0
619	43695	23.39565457604	0
619	52637	28.074785491248	0
619	61393	32.753916406456	0
619	70118	37.433047321664	0
619	78774	42.112178236872	0
619	87679	46.79130915208	0
619	96148	51.470440067288	0
619	104631	56.149570982496	0
619	112890	60.828701897704	0
620	7567	4.679130915208	28
620	15864	9.358261830416	28
620	25502	14.037392745624	28
620	34124	18.716523660832	28
620	43696	23.39565457604	28
620	52638	28.074785491248	28
620	61394	32.753916406456	28
620	70119	37.433047321664	28
620	78775	42.112178236872	28
620	87680	46.79130915208	28
620	96149	51.470440067288	28
620	104632	56.149570982496	28
620	112891	60.828701897704	28
621	7567	4.679130915208	1
621	7568	4.679130915208	2
621	7618	4.679354915208	1
621	7618	4.679354915208	0
621	15864	9.358261830416	1
621	15865	9.358261830416	2
621	15915	9.358485830416	1
621	15915	9.358485830416	0
621	25502	14.037392745624	1
621	25503	14.037392745624	2
621	25553	14.037616745624	1
621	25553	14.037616745624	0
621	34124	18.716523660832	1
621	34125	18.716523660832	2
621	34175	18.716747660832	1
621	34175	18.716747660832	0
621	43696	23.39565457604	1
621	43697	23.39565457604	2
621	43747	23.39587857604	1
621	43747	23.39587857604	0
621	52638	28.074785491248	1
621	52639	28.074785491248	2
621	52689	28.075009491248	1
621	52689	28.075009491248	0
621	61394	32.753916406456	1
621	61395	32.753916406456	2
621	61445	32.754140406456	1
621	61445	32.754140406456	0
621	70119	37.433047321664	1
621	70120	37.433047321664	2
621	70170	37.433271321664	1
621	70170	37.433271321664	0
621	78775	42.112178236872	1
621	78776	42.112178236872	2
621	78826	42.112402236872	1
621	78826	42.112402236872	0
621	87680	46.79130915208	1
621	87681	46.79130915208	2
621	87731	46.79153315208	1
621	87731	46.79153315208	0
621	96149	51.470440067288	1
621	96150	51.470440067288	2
621	96200	51.470664067288	1
621	96200	51.470664067288	0
621	104632	56.149570982496	1
621	104633	56.149570982496	2
621	104683	56.149794982496	1
621	104683	56.149794982496	0
621	112891	60.828701897704	1
621	112892	60.828701897704	2
621	112942	60.828925897704	1
621	112942	60.828925897704	0
622	7567	4.679130915208	28
622	15864	9.358261830416	28
622	25502	14.037392745624	28
622	34124	18.716523660832	28
622	43696	23.39565457604	28
622	52638	28.074785491248	28
622	61394	32.753916406456	28
622	70119	37.433047321664	28
622	78775	42.112178236872	28
622	87680	46.79130915208	28
622	96149	51.470440067288	28
622	104632	56.149570982496	28
622	112891	60.828701897704	28
623	7780	4.888621189059	28
623	16745	9.777242378118	28
623	26159	14.665863567177	28
623	35661	19.554484756236	28
623	45148	24.443105945295	28
623	54547	29.331727134354	28
623	63981	34.220348323413	28
623	73452	39.108969512472	28
623	82502	43.997590701531	28
623	91185	48.88621189059	28
623	99763	53.774833079649	28
623	108812	58.663454268708	28
623	117378	63.552075457767	28
624	7780	4.888621189059	0
624	16745	9.777242378118	0
624	26159	14.665863567177	0
624	35661	19.554484756236	0
624	45148	24.443105945295	0
624	54547	29.331727134354	0
624	63981	34.220348323413	0
624	73452	39.108969512472	0
624	82502	43.997590701531	0
624	91185	48.88621189059	0
624	99763	53.774833079649	0
624	108812	58.663454268708	0
624	117378	63.552075457767	0
625	7781	4.888621189059	28
625	16746	9.777242378118	28
625	26160	14.665863567177	28
625	35662	19.554484756236	28
625	45149	24.443105945295	28
625	54548	29.331727134354	28
625	63982	34.220348323413	28
625	73453	39.108969512472	28
625	82503	43.997590701531	28
625	91186	48.88621189059	28
625	99764	53.774833079649	28
625	108813	58.663454268708	28
625	117379	63.552075457767	28
626	7781	4.888621189059	1
626	7782	4.888621189059	2
626	7832	4.888845189059	1
626	7832	4.888845189059	0
626	16746	9.777242378118	1
626	16747	9.777242378118	2
626	16797	9.777466378118	1
626	16797	9.777466378118	0
626	26160	14.665863567177	1
626	26161	14.665863567177	2
626	26211	14.666087567177	1
626	26211	14.666087567177	0
626	35662	19.554484756236	1
626	35663	19.554484756236	2
626	35713	19.554708756236	1
626	35713	19.554708756236	0
626	45149	24.443105945295	1
626	45150	24.443105945295	2
626	45200	24.443329945295	1
626	45200	24.443329945295	0
626	54548	29.331727134354	1
626	54549	29.331727134354	2
626	54599	29.331951134354	1
626	54599	29.331951134354	0
626	63982	34.220348323413	1
626	63983	34.220348323413	2
626	64033	34.220572323413	1
626	64033	34.220572323413	0
626	73453	39.108969512472	1
626	73454	39.108969512472	2
626	73504	39.109193512472	1
626	73504	39.109193512472	0
626	82503	43.997590701531	1
626	82504	43.997590701531	2
626	82554	43.997814701531	1
626	82554	43.997814701531	0
626	91186	48.88621189059	1
626	91187	48.88621189059	2
626	91237	48.88643589059	1
626	91237	48.88643589059	0
626	99764	53.774833079649	1
626	99765	53.774833079649	2
626	99815	53.775057079649	1
626	99815	53.775057079649	0
626	108813	58.663454268708	1
626	108814	58.663454268708	2
626	108864	58.663678268708	1
626	108864	58.663678268708	0
626	117379	63.552075457767	1
626	117380	63.552075457767	2
626	117430	63.552299457767	1
626	117430	63.552299457767	0
627	7781	4.888621189059	28
627	16746	9.777242378118	28
627	26160	14.665863567177	28
627	35662	19.554484756236	28
627	45149	24.443105945295	28
627	54548	29.331727134354	28
627	63982	34.220348323413	28
627	73453	39.108969512472	28
627	82503	43.997590701531	28
627	91186	48.88621189059	28
627	99764	53.774833079649	28
627	108813	58.663454268708	28
627	117379	63.552075457767	28
628	7838	4.888846146491	28
628	16799	9.777467046333	28
628	26213	14.666088232637	28
628	35715	19.554709707894	28
628	57112	30.236952962917	28
628	64975	34.556485349601	28
628	72900	38.87601786516	28
628	81142	43.195550557948	28
628	89019	47.515083367441	28
628	93144	49.788100279639	28
628	100355	53.937089660934	28
628	107558	58.086079048695	28
628	111775	60.025900926463	28
628	115560	62.235068464265	28
628	117112	63.360660541898	28
629	7838	4.888846146491	28
629	16799	9.777467046333	28
629	26213	14.666088232637	28
629	35715	19.554709707894	28
629	57112	30.236952962917	28
629	64975	34.556485349601	28
629	72900	38.87601786516	28
629	81142	43.195550557948	28
629	89019	47.515083367441	28
629	93144	49.788100279639	28
629	100355	53.937089660934	28
629	107558	58.086079048695	28
629	111775	60.025900926463	28
629	115560	62.235068464265	28
629	117112	63.360660541898	28
630	7890	4.890444458858	28
630	16855	9.780888917716	28
630	26265	14.671333376574	28
630	35767	19.561777835432	28
630	45251	24.45222229429	28
630	54650	29.342666753148	28
630	64087	34.233111212006	28
630	73558	39.123555670864	28
630	82755	44.014000129722	28
630	91333	48.90444458858	28
630	99865	53.794889047438	28
630	108915	58.685333506296	28
630	117483	63.575777965154	28
631	7890	4.890444458858	0
631	16855	9.780888917716	0
631	26265	14.671333376574	0
631	35767	19.561777835432	0
631	45251	24.45222229429	0
631	54650	29.342666753148	0
631	64087	34.233111212006	0
631	73558	39.123555670864	0
631	82755	44.014000129722	0
631	91333	48.90444458858	0
631	99865	53.794889047438	0
631	108915	58.685333506296	0
631	117483	63.575777965154	0
632	7891	4.890444458858	28
632	16856	9.780888917716	28
632	26266	14.671333376574	28
632	35768	19.561777835432	28
632	45252	24.45222229429	28
632	54651	29.342666753148	28
632	64088	34.233111212006	28
632	73559	39.123555670864	28
632	82756	44.014000129722	28
632	91334	48.90444458858	28
632	99866	53.794889047438	28
632	108916	58.685333506296	28
632	117484	63.575777965154	28
633	7891	4.890444458858	1
633	7892	4.890444458858	2
633	7942	4.890668458858	1
633	7942	4.890668458858	0
633	16856	9.780888917716	1
633	16857	9.780888917716	2
633	16907	9.781112917716	1
633	16907	9.781112917716	0
633	26266	14.671333376574	1
633	26267	14.671333376574	2
633	26317	14.671557376574	1
633	26317	14.671557376574	0
633	35768	19.561777835432	1
633	35769	19.561777835432	2
633	35819	19.562001835432	1
633	35819	19.562001835432	0
633	45252	24.45222229429	1
633	45253	24.45222229429	2
633	45303	24.45244629429	1
633	45303	24.45244629429	0
633	54651	29.342666753148	1
633	54652	29.342666753148	2
633	54702	29.342890753148	1
633	54702	29.342890753148	0
633	64088	34.233111212006	1
633	64089	34.233111212006	2
633	64139	34.233335212006	1
633	64139	34.233335212006	0
633	73559	39.123555670864	1
633	73560	39.123555670864	2
633	73610	39.123779670864	1
633	73610	39.123779670864	0
633	82756	44.014000129722	1
633	82757	44.014000129722	2
633	82807	44.014224129722	1
633	82807	44.014224129722	0
633	91334	48.90444458858	1
633	91335	48.90444458858	2
633	91385	48.90466858858	1
633	91385	48.90466858858	0
633	99866	53.794889047438	1
633	99867	53.794889047438	2
633	99917	53.795113047438	1
633	99917	53.795113047438	0
633	108916	58.685333506296	1
633	108917	58.685333506296	2
633	108967	58.685557506296	1
633	108967	58.685557506296	0
633	117484	63.575777965154	1
633	117485	63.575777965154	2
633	117535	63.576001965154	1
633	117535	63.576001965154	0
634	7891	4.890444458858	28
634	16856	9.780888917716	28
634	26266	14.671333376574	28
634	35768	19.561777835432	28
634	45252	24.45222229429	28
634	54651	29.342666753148	28
634	64088	34.233111212006	28
634	73559	39.123555670864	28
634	82756	44.014000129722	28
634	91334	48.90444458858	28
634	99866	53.794889047438	28
634	108916	58.685333506296	28
634	117484	63.575777965154	28
635	8058	4.95338974114	28
635	17322	9.90677948228	28
635	26482	14.86016922342	28
635	36614	19.81355896456	28
635	45751	24.7669487057	28
635	55651	29.72033844684	28
635	65192	34.67372818798	28
635	74818	39.62711792912	28
635	83237	44.58050767026	28
635	92301	49.5338974114	28
635	100891	54.48728715254	28
635	110417	59.44067689368	28
635	119105	64.39406663482	28
636	8058	4.95338974114	0
636	17322	9.90677948228	0
636	26482	14.86016922342	0
636	36614	19.81355896456	0
636	45751	24.7669487057	0
636	55651	29.72033844684	0
636	65192	34.67372818798	0
636	74818	39.62711792912	0
636	83237	44.58050767026	0
636	92301	49.5338974114	0
636	100891	54.48728715254	0
636	110417	59.44067689368	0
636	119105	64.39406663482	0
637	8059	4.95338974114	28
637	17323	9.90677948228	28
637	26483	14.86016922342	28
637	36615	19.81355896456	28
637	45752	24.7669487057	28
637	55652	29.72033844684	28
637	65193	34.67372818798	28
637	74819	39.62711792912	28
637	83238	44.58050767026	28
637	92302	49.5338974114	28
637	100892	54.48728715254	28
637	110418	59.44067689368	28
637	119106	64.39406663482	28
638	8059	4.95338974114	1
638	8060	4.95338974114	2
638	8110	4.95361374114	1
638	8110	4.95361374114	0
638	17323	9.90677948228	1
638	17324	9.90677948228	2
638	17374	9.90700348228	1
638	17374	9.90700348228	0
638	26483	14.86016922342	1
638	26484	14.86016922342	2
638	26534	14.86039322342	1
638	26534	14.86039322342	0
638	36615	19.81355896456	1
638	36616	19.81355896456	2
638	36666	19.81378296456	1
638	36666	19.81378296456	0
638	45752	24.7669487057	1
638	45753	24.7669487057	2
638	45803	24.7671727057	1
638	45803	24.7671727057	0
638	55652	29.72033844684	1
638	55653	29.72033844684	2
638	55703	29.72056244684	1
638	55703	29.72056244684	0
638	65193	34.67372818798	1
638	65194	34.67372818798	2
638	65244	34.67395218798	1
638	65244	34.67395218798	0
638	74819	39.62711792912	1
638	74820	39.62711792912	2
638	74870	39.62734192912	1
638	74870	39.62734192912	0
638	83238	44.58050767026	1
638	83239	44.58050767026	2
638	83289	44.58073167026	1
638	83289	44.58073167026	0
638	92302	49.5338974114	1
638	92303	49.5338974114	2
638	92353	49.5341214114	1
638	92353	49.5341214114	0
638	100892	54.48728715254	1
638	100893	54.48728715254	2
638	100943	54.48751115254	1
638	100943	54.48751115254	0
638	110418	59.44067689368	1
638	110419	59.44067689368	2
638	110469	59.44090089368	1
638	110469	59.44090089368	0
638	119106	64.39406663482	1
638	119107	64.39406663482	2
638	119157	64.39429063482	1
638	119157	64.39429063482	0
639	8059	4.95338974114	28
639	17323	9.90677948228	28
639	26483	14.86016922342	28
639	36615	19.81355896456	28
639	45752	24.7669487057	28
639	55652	29.72033844684	28
639	65193	34.67372818798	28
639	74819	39.62711792912	28
639	83238	44.58050767026	28
639	92302	49.5338974114	28
639	100892	54.48728715254	28
639	110418	59.44067689368	28
639	119106	64.39406663482	28
640	8174	4.953986959788	28
640	17441	9.907973919576	28
640	26600	14.861960879364	28
640	36729	19.815947839152	28
640	45869	24.76993479894	28
640	55768	29.723921758728	28
640	65312	34.677908718516	28
640	74934	39.631895678304	28
640	83403	44.585882638092	28
640	92413	49.53986959788	28
640	101003	54.493856557668	28
640	110525	59.447843517456	28
640	119261	64.401830477244	28
641	8174	4.953986959788	0
641	17441	9.907973919576	0
641	26600	14.861960879364	0
641	36729	19.815947839152	0
641	45869	24.76993479894	0
641	55768	29.723921758728	0
641	65312	34.677908718516	0
641	74934	39.631895678304	0
641	83403	44.585882638092	0
641	92413	49.53986959788	0
641	101003	54.493856557668	0
641	110525	59.447843517456	0
641	119261	64.401830477244	0
642	8175	4.953986959788	28
642	17442	9.907973919576	28
642	26601	14.861960879364	28
642	36730	19.815947839152	28
642	45870	24.76993479894	28
642	55769	29.723921758728	28
642	65313	34.677908718516	28
642	74935	39.631895678304	28
642	83404	44.585882638092	28
642	92414	49.53986959788	28
642	101004	54.493856557668	28
642	110526	59.447843517456	28
642	119262	64.401830477244	28
643	8175	4.953986959788	1
643	8176	4.953986959788	2
643	8226	4.954210959788	1
643	8226	4.954210959788	0
643	17442	9.907973919576	1
643	17443	9.907973919576	2
643	17493	9.908197919576	1
643	17493	9.908197919576	0
643	26601	14.861960879364	1
643	26602	14.861960879364	2
643	26652	14.862184879364	1
643	26652	14.862184879364	0
643	36730	19.815947839152	1
643	36731	19.815947839152	2
643	36781	19.816171839152	1
643	36781	19.816171839152	0
643	45870	24.76993479894	1
643	45871	24.76993479894	2
643	45921	24.77015879894	1
643	45921	24.77015879894	0
643	55769	29.723921758728	1
643	55770	29.723921758728	2
643	55820	29.724145758728	1
643	55820	29.724145758728	0
643	65313	34.677908718516	1
643	65314	34.677908718516	2
643	65364	34.678132718516	1
643	65364	34.678132718516	0
643	74935	39.631895678304	1
643	74936	39.631895678304	2
643	74986	39.632119678304	1
643	74986	39.632119678304	0
643	83404	44.585882638092	1
643	83405	44.585882638092	2
643	83504	44.586106638092	1
643	83504	44.586106638092	0
643	92414	49.53986959788	1
643	92415	49.53986959788	2
643	92465	49.54009359788	1
643	92465	49.54009359788	0
643	101004	54.493856557668	1
643	101005	54.493856557668	2
643	101055	54.494080557668	1
643	101055	54.494080557668	0
643	110526	59.447843517456	1
643	110527	59.447843517456	2
643	110577	59.448067517456	1
643	110577	59.448067517456	0
643	119262	64.401830477244	1
643	119263	64.401830477244	2
643	119313	64.402054477244	1
643	119313	64.402054477244	0
644	8175	4.953986959788	28
644	17442	9.907973919576	28
644	26601	14.861960879364	28
644	36730	19.815947839152	28
644	45870	24.76993479894	28
644	55769	29.723921758728	28
644	65313	34.677908718516	28
644	74935	39.631895678304	28
644	83404	44.585882638092	28
644	92414	49.53986959788	28
644	101004	54.493856557668	28
644	110526	59.447843517456	28
644	119262	64.401830477244	28
645	8296	4.976980187055	28
645	17676	9.95396037411	28
645	26901	14.930940561165	28
645	37007	19.90792074822	28
645	46274	24.884900935275	28
645	56038	29.86188112233	28
645	65765	34.838861309385	28
645	75373	39.81584149644	28
645	83883	44.792821683495	28
645	92971	49.76980187055	28
645	101812	54.746782057605	28
645	111117	59.72376224466	28
645	119634	64.700742431715	28
646	8296	4.976980187055	0
646	17676	9.95396037411	0
646	26901	14.930940561165	0
646	37007	19.90792074822	0
646	46274	24.884900935275	0
646	56038	29.86188112233	0
646	65765	34.838861309385	0
646	75373	39.81584149644	0
646	83883	44.792821683495	0
646	92971	49.76980187055	0
646	101812	54.746782057605	0
646	111117	59.72376224466	0
646	119634	64.700742431715	0
647	8297	4.976980187055	28
647	17677	9.95396037411	28
647	26902	14.930940561165	28
647	37008	19.90792074822	28
647	46275	24.884900935275	28
647	56039	29.86188112233	28
647	65766	34.838861309385	28
647	75374	39.81584149644	28
647	83884	44.792821683495	28
647	92972	49.76980187055	28
647	101813	54.746782057605	28
647	111118	59.72376224466	28
647	119635	64.700742431715	28
648	8297	4.976980187055	1
648	8298	4.976980187055	2
648	8348	4.977204187055	1
648	8348	4.977204187055	0
648	17677	9.95396037411	1
648	17678	9.95396037411	2
648	17729	9.95418437411	1
648	17729	9.95418437411	0
648	26902	14.930940561165	1
648	26903	14.930940561165	2
648	26953	14.931164561165	1
648	26953	14.931164561165	0
648	37008	19.90792074822	1
648	37009	19.90792074822	2
648	37059	19.90814474822	1
648	37059	19.90814474822	0
648	46275	24.884900935275	1
648	46276	24.884900935275	2
648	46326	24.885124935275	1
648	46326	24.885124935275	0
648	56039	29.86188112233	1
648	56040	29.86188112233	2
648	56090	29.86210512233	1
648	56090	29.86210512233	0
648	65766	34.838861309385	1
648	65767	34.838861309385	2
648	65817	34.839085309385	1
648	65817	34.839085309385	0
648	75374	39.81584149644	1
648	75375	39.81584149644	2
648	75425	39.81606549644	1
648	75425	39.81606549644	0
648	83884	44.792821683495	1
648	83885	44.792821683495	2
648	83935	44.793045683495	1
648	83935	44.793045683495	0
648	92972	49.76980187055	1
648	92973	49.76980187055	2
648	93023	49.77002587055	1
648	93023	49.77002587055	0
648	101813	54.746782057605	1
648	101814	54.746782057605	2
648	101864	54.747006057605	1
648	101864	54.747006057605	0
648	111118	59.72376224466	1
648	111119	59.72376224466	2
648	111169	59.72398624466	1
648	111169	59.72398624466	0
648	119635	64.700742431715	1
648	119636	64.700742431715	2
648	119686	64.700966431715	1
648	119686	64.700966431715	0
649	8297	4.976980187055	28
649	17677	9.95396037411	28
649	26902	14.930940561165	28
649	37008	19.90792074822	28
649	46275	24.884900935275	28
649	56039	29.86188112233	28
649	65766	34.838861309385	28
649	75374	39.81584149644	28
649	83884	44.792821683495	28
649	92972	49.76980187055	28
649	101813	54.746782057605	28
649	111118	59.72376224466	28
649	119635	64.700742431715	28

