version 2
run KHOPCA_Parameter_Study-141-20181116-18:44:52-24411
attr configname KHOPCA_Parameter_Study
attr datetime 20181116-18:44:52
attr experiment KHOPCA_Parameter_Study
attr inifile omnetpp.ini
attr iterationvars "$MAX=2, $range=2m, $numHosts=100, $speed=25mps, $update=0.5, $packetloss=0.5, $maxX=20m, $0=20m"
attr iterationvarsf MAX=2,range=2m,numHosts=100,speed=25mps,update=0.5,packetloss=0.5,maxX=20m,20m-
attr measurement "$MAX=2, $range=2m, $numHosts=100, $speed=25mps, $update=0.5, $packetloss=0.5, $maxX=20m, $0=20m"
attr network khopca_test.simulations.SensorNetwork
attr processid 24411
attr repetition 0
attr replication #0
attr resultdir results
attr runnumber 141
attr seedset 141
itervar MAX 2
itervar maxX 20m
itervar numHosts 100
itervar packetloss 0.5
itervar range 2m
itervar speed 25mps
itervar update 0.5
param **.host[*].khopca.MAX 2
param *.host*.wlan[*].radio.transmitter.communicationRange 2m
param *.numHosts 100
param **.host[*].mobility.speed 25mps
param **.host[*].khopca.updateInterval 0.5
param *.host[*].khopca.packetLossProbability 0.5
param **.constraintAreaMaxX 20m
param **.constraintAreaMaxY 20m
param *.numHosts 10
param *.host*.wlan[*].typename "\"IdealWirelessNic\""
param *.host*.wlan[*].mac.useAck false
param *.host*.wlan[*].mac.fullDuplex false
param *.host*.wlan[*].radio.transmitter.communicationRange 300m
param *.host*.wlan[*].radio.receiver.ignoreInterference true
param *.host*.**.bitrate 1Mbps
param *.visualizer.interfaceTableVisualizer.displayInterfaceTables false
param *.visualizer.interfaceTableVisualizer.interfaceFilter "\"wlan*\""
param *.visualizer.interfaceTableVisualizer.format "\"%N\\n%n\""
param *.visualizer.interfaceTableVisualizer.displacementHint "\"left\""
param *.visualizer.sceneVisualizer.descriptionFigure "\"title\""
param *.visualizer.linkBreakVisualizer.displayLinkBreaks true
param *.visualizer.packetDropVisualizer.displayPacketDrops true
param *.visualizer.packetDropVisualizer.packetFilter "\"UDPData*\""
param *.visualizer.mediumVisualizer.signalPropagationAnimationSpeed 0.000001
param *.visualizer.mediumVisualizer.signalTransmissionAnimationSpeed 0.0005
param *.visualizer.mediumVisualizer.displayTransmissions true
param *.visualizer.mediumVisualizer.displayReceptions true
param *.visualizer.mediumVisualizer.displaySignals false
param *.configurator.config "xml(\"<config><interface hosts='**' address='10.0.0.x' netmask='255.255.255.0'/><autoroute metric='errorRate'/></config>\")"
param *.configurator.optimizeRoutes false
param *.host*.routingTable.netmaskRoutes "\"\""
param *.configurator.addStaticRoutes false
param *.host*.wlan[0].radio.displayCommunicationRange false
param *.host*.wlan[0].radio.energyConsumerType "\"StateBasedEpEnergyConsumer\""
param **.host*.energyStorageType "\"SimpleEpEnergyStorage\""
param **.host*.energyStorage.nominalCapacity 1J
param **.host[*].energyStorage.initialCapacity "uniform(index * 0.01J, this.nominalCapacity)"
param **.host[*].khopca.updateInterval 3
param **.host[*].mobilityType "\"RandomWPMobility\""
param **.host[*].mobility.speed "uniform(index * 0.2mps,20mps)"
param **.host[*].mobility.waypointProximity 100m
param **.host[*].mobility.waitTime uniform(0s,1s)
param **.constraintAreaMinX 0m
param **.constraintAreaMinY 0m
param **.constraintAreaMinZ 0m
param **.constraintAreaMaxX 500m
param **.constraintAreaMaxY 500m
param **.constraintAreaMaxZ 10m
param **.hasStatus true

scalar SensorNetwork.radioMedium.propagation "Arrival computation count" 2280663
scalar SensorNetwork.radioMedium "transmission count" 23037
scalar SensorNetwork.radioMedium "radio frame send count" 2280663
scalar SensorNetwork.radioMedium "reception computation count" 1716854
scalar SensorNetwork.radioMedium "interference computation count" 5172141
scalar SensorNetwork.radioMedium "reception decision computation count" 15085
scalar SensorNetwork.radioMedium "listening decision computation count" 3440572
scalar SensorNetwork.radioMedium "reception cache hit" 75.463563007911
attr unit %
scalar SensorNetwork.radioMedium "interference cache hit" 66.666666666667
attr unit %
scalar SensorNetwork.radioMedium "noise cache hit" 0
attr unit %
scalar SensorNetwork.radioMedium "snir cache hit" 50
attr unit %
scalar SensorNetwork.radioMedium "reception decision cache hit" 50
attr unit %
scalar SensorNetwork.radioMedium "reception result cache hit" 0
attr unit %
scalar SensorNetwork.host[0].networkLayer.arp failedARPResolution:count 0
attr title "ARP failed resolutions, count"
scalar SensorNetwork.host[0].networkLayer.arp completedARPResolution:count 0
attr title "ARP completed resolutions, count"
scalar SensorNetwork.host[0].networkLayer.arp initiatedARPResolution:count 0
attr title "ARP initiated resolutions, count"
scalar SensorNetwork.host[0].networkLayer.arp sentReply:count 0
attr title "ARP replies sent, count"
scalar SensorNetwork.host[0].networkLayer.arp sentReq:count 0
attr title "ARP request sent, count"
scalar SensorNetwork.host[0].lo0.lo droppedPkBitError:count 0
attr interpolationmode none
attr source dropPkBitError
attr title "packets dropped/bit error, count"
scalar SensorNetwork.host[0].lo0.lo droppedPkBitError:sum(packetBytes) 0
attr interpolationmode none
attr source dropPkBitError
attr title "packets dropped/bit error, sum(packetBytes)"
scalar SensorNetwork.host[0].lo0.lo rcvdPkFromHL:count 0
attr interpolationmode none
attr source packetReceivedFromUpper
attr title "packets received from higher layer, count"
scalar SensorNetwork.host[0].lo0.lo rcvdPkFromHL:sum(packetBytes) 0
attr interpolationmode none
attr source packetReceivedFromUpper
attr title "packets received from higher layer, sum(packetBytes)"
scalar SensorNetwork.host[0].lo0.lo passedUpPk:count 0
attr interpolationmode none
attr source packetSentToUpper
attr title "packets passed to higher layer, count"
scalar SensorNetwork.host[0].lo0.lo passedUpPk:sum(packetBytes) 0
attr interpolationmode none
attr source packetSentToUpper
attr title "packets passed to higher layer, sum(packetBytes)"
statistic SensorNetwork.host[0].wlan[0].queue queueingTime:histogram
field count 103
field mean 0
field stddev 0
field min 0
field max 0
field sum 0
field sqrsum 0
attr interpolationmode none
attr title "queueing time, histogram"
bin	-inf	0
bin	-0.5	0
bin	-0.48	0
bin	-0.46	0
bin	-0.44	0
bin	-0.42	0
bin	-0.4	0
bin	-0.38	0
bin	-0.36	0
bin	-0.34	0
bin	-0.32	0
bin	-0.3	0
bin	-0.28	0
bin	-0.26	0
bin	-0.24	0
bin	-0.22	0
bin	-0.2	0
bin	-0.18	0
bin	-0.16	0
bin	-0.14	0
bin	-0.12	0
bin	-0.1	0
bin	-0.08	0
bin	-0.06	0
bin	-0.04	0
bin	-0.02	0
bin	0	103
bin	0.02	0
bin	0.04	0
bin	0.06	0
bin	0.08	0
bin	0.1	0
bin	0.12	0
bin	0.14	0
bin	0.16	0
bin	0.18	0
bin	0.2	0
bin	0.22	0
bin	0.24	0
bin	0.26	0
bin	0.28	0
bin	0.3	0
bin	0.32	0
bin	0.34	0
bin	0.36	0
bin	0.38	0
bin	0.4	0
bin	0.42	0
bin	0.44	0
bin	0.46	0
bin	0.48	0
bin	0.5	0
scalar SensorNetwork.host[0].wlan[0].queue dropPk:count 0
attr interpolationmode none
attr source dropPkByQueue
attr title "dropped packets, count"
scalar SensorNetwork.host[0].wlan[0].queue dropPk:sum(packetBytes) 0
attr interpolationmode none
attr source dropPkByQueue
attr title "dropped packets, sum(packetBytes)"
scalar SensorNetwork.host[0].wlan[0].queue queueLength:max nan
attr interpolationmode sample-hold
attr title "queue length, max"
scalar SensorNetwork.host[0].wlan[0].queue queueLength:timeavg -nan
attr interpolationmode sample-hold
attr title "queue length, timeavg"
scalar SensorNetwork.host[0].wlan[0].queue rcvdPk:count 103
attr interpolationmode none
attr title "received packets, count"
scalar SensorNetwork.host[0].wlan[0].queue rcvdPk:sum(packetBytes) 2884
attr interpolationmode none
attr title "received packets, sum(packetBytes)"
scalar SensorNetwork.host[0].wlan[0].mac droppedPkNotForUs:count 0
attr interpolationmode none
attr source dropPkNotForUs
attr title "packets dropped/not for us, count"
scalar SensorNetwork.host[0].wlan[0].mac droppedPkNotForUs:sum(packetBytes) 0
attr interpolationmode none
attr source dropPkNotForUs
attr title "packets dropped/not for us, sum(packetBytes)"
scalar SensorNetwork.host[0].wlan[0].mac rcvdPkFromLL:count 122
attr interpolationmode none
attr source packetReceivedFromLower
attr title "packets received from lower layer, count"
scalar SensorNetwork.host[0].wlan[0].mac rcvdPkFromLL:sum(packetBytes) 3416
attr interpolationmode none
attr source packetReceivedFromLower
attr title "packets received from lower layer, sum(packetBytes)"
scalar SensorNetwork.host[0].wlan[0].mac sentDownPk:count 103
attr interpolationmode none
attr source packetSentToLower
attr title "packets sent to lower layer, count"
scalar SensorNetwork.host[0].wlan[0].mac sentDownPk:sum(packetBytes) 2884
attr interpolationmode none
attr source packetSentToLower
attr title "packets sent to lower layer, sum(packetBytes)"
scalar SensorNetwork.host[0].wlan[0].mac rcvdPkFromHL:count 103
attr interpolationmode none
attr source packetReceivedFromUpper
attr title "packets received from higher layer, count"
scalar SensorNetwork.host[0].wlan[0].mac rcvdPkFromHL:sum(packetBytes) 2884
attr interpolationmode none
attr source packetReceivedFromUpper
attr title "packets received from higher layer, sum(packetBytes)"
scalar SensorNetwork.host[0].wlan[0].mac passedUpPk:count 122
attr interpolationmode none
attr source packetSentToUpper
attr title "packets passed to higher layer, count"
scalar SensorNetwork.host[0].wlan[0].mac passedUpPk:sum(packetBytes) 3416
attr interpolationmode none
attr source packetSentToUpper
attr title "packets passed to higher layer, sum(packetBytes)"
scalar SensorNetwork.host[0].wlan[0].radio transmissionState:count 412
attr interpolationmode sample-hold
attr source transmissionStateChanged
attr title "Radio transmission state, count"
scalar SensorNetwork.host[0].wlan[0].radio receptionState:count 451
attr interpolationmode sample-hold
attr source receptionStateChanged
attr title "Radio reception state, count"
scalar SensorNetwork.host[0].wlan[0].radio radioMode:count 207
attr interpolationmode sample-hold
attr source radioModeChanged
attr title "Radio mode, count"
statistic SensorNetwork.host[0].wlan[0].radio symbolErrorRate:histogram
field count 122
field mean 0
field stddev 0
field min 0
field max 0
field sum 0
field sqrsum 0
attr source symbolErrorRate
attr title "Symbol error rate, histogram"
bin	-inf	0
bin	-0.5	0
bin	-0.48	0
bin	-0.46	0
bin	-0.44	0
bin	-0.42	0
bin	-0.4	0
bin	-0.38	0
bin	-0.36	0
bin	-0.34	0
bin	-0.32	0
bin	-0.3	0
bin	-0.28	0
bin	-0.26	0
bin	-0.24	0
bin	-0.22	0
bin	-0.2	0
bin	-0.18	0
bin	-0.16	0
bin	-0.14	0
bin	-0.12	0
bin	-0.1	0
bin	-0.08	0
bin	-0.06	0
bin	-0.04	0
bin	-0.02	0
bin	0	122
bin	0.02	0
bin	0.04	0
bin	0.06	0
bin	0.08	0
bin	0.1	0
bin	0.12	0
bin	0.14	0
bin	0.16	0
bin	0.18	0
bin	0.2	0
bin	0.22	0
bin	0.24	0
bin	0.26	0
bin	0.28	0
bin	0.3	0
bin	0.32	0
bin	0.34	0
bin	0.36	0
bin	0.38	0
bin	0.4	0
bin	0.42	0
bin	0.44	0
bin	0.46	0
bin	0.48	0
bin	0.5	0
statistic SensorNetwork.host[0].wlan[0].radio bitErrorRate:histogram
field count 122
field mean 0
field stddev 0
field min 0
field max 0
field sum 0
field sqrsum 0
attr source bitErrorRate
attr title "Bit error rate, histogram"
bin	-inf	0
bin	-0.5	0
bin	-0.48	0
bin	-0.46	0
bin	-0.44	0
bin	-0.42	0
bin	-0.4	0
bin	-0.38	0
bin	-0.36	0
bin	-0.34	0
bin	-0.32	0
bin	-0.3	0
bin	-0.28	0
bin	-0.26	0
bin	-0.24	0
bin	-0.22	0
bin	-0.2	0
bin	-0.18	0
bin	-0.16	0
bin	-0.14	0
bin	-0.12	0
bin	-0.1	0
bin	-0.08	0
bin	-0.06	0
bin	-0.04	0
bin	-0.02	0
bin	0	122
bin	0.02	0
bin	0.04	0
bin	0.06	0
bin	0.08	0
bin	0.1	0
bin	0.12	0
bin	0.14	0
bin	0.16	0
bin	0.18	0
bin	0.2	0
bin	0.22	0
bin	0.24	0
bin	0.26	0
bin	0.28	0
bin	0.3	0
bin	0.32	0
bin	0.34	0
bin	0.36	0
bin	0.38	0
bin	0.4	0
bin	0.42	0
bin	0.44	0
bin	0.46	0
bin	0.48	0
bin	0.5	0
statistic SensorNetwork.host[0].wlan[0].radio packetErrorRate:histogram
field count 122
field mean 0
field stddev 0
field min 0
field max 0
field sum 0
field sqrsum 0
attr source packetErrorRate
attr title "Packet error rate, histogram"
bin	-inf	0
bin	-0.5	0
bin	-0.48	0
bin	-0.46	0
bin	-0.44	0
bin	-0.42	0
bin	-0.4	0
bin	-0.38	0
bin	-0.36	0
bin	-0.34	0
bin	-0.32	0
bin	-0.3	0
bin	-0.28	0
bin	-0.26	0
bin	-0.24	0
bin	-0.22	0
bin	-0.2	0
bin	-0.18	0
bin	-0.16	0
bin	-0.14	0
bin	-0.12	0
bin	-0.1	0
bin	-0.08	0
bin	-0.06	0
bin	-0.04	0
bin	-0.02	0
bin	0	122
bin	0.02	0
bin	0.04	0
bin	0.06	0
bin	0.08	0
bin	0.1	0
bin	0.12	0
bin	0.14	0
bin	0.16	0
bin	0.18	0
bin	0.2	0
bin	0.22	0
bin	0.24	0
bin	0.26	0
bin	0.28	0
bin	0.3	0
bin	0.32	0
bin	0.34	0
bin	0.36	0
bin	0.38	0
bin	0.4	0
bin	0.42	0
bin	0.44	0
bin	0.46	0
bin	0.48	0
bin	0.5	0
statistic SensorNetwork.host[0].wlan[0].radio minSNIR:histogram
field count 0
field mean -nan
field stddev nan
field min nan
field max nan
field sum 0
field sqrsum 0
attr source minSNIR
attr title "Min SNIR, histogram"
bin	-inf	0
bin	0	0
bin	1	0
scalar SensorNetwork.host[1].networkLayer.arp failedARPResolution:count 0
attr title "ARP failed resolutions, count"
scalar SensorNetwork.host[1].networkLayer.arp completedARPResolution:count 0
attr title "ARP completed resolutions, count"
scalar SensorNetwork.host[1].networkLayer.arp initiatedARPResolution:count 0
attr title "ARP initiated resolutions, count"
scalar SensorNetwork.host[1].networkLayer.arp sentReply:count 0
attr title "ARP replies sent, count"
scalar SensorNetwork.host[1].networkLayer.arp sentReq:count 0
attr title "ARP request sent, count"
scalar SensorNetwork.host[1].lo0.lo droppedPkBitError:count 0
attr interpolationmode none
attr source dropPkBitError
attr title "packets dropped/bit error, count"
scalar SensorNetwork.host[1].lo0.lo droppedPkBitError:sum(packetBytes) 0
attr interpolationmode none
attr source dropPkBitError
attr title "packets dropped/bit error, sum(packetBytes)"
scalar SensorNetwork.host[1].lo0.lo rcvdPkFromHL:count 0
attr interpolationmode none
attr source packetReceivedFromUpper
attr title "packets received from higher layer, count"
scalar SensorNetwork.host[1].lo0.lo rcvdPkFromHL:sum(packetBytes) 0
attr interpolationmode none
attr source packetReceivedFromUpper
attr title "packets received from higher layer, sum(packetBytes)"
scalar SensorNetwork.host[1].lo0.lo passedUpPk:count 0
attr interpolationmode none
attr source packetSentToUpper
attr title "packets passed to higher layer, count"
scalar SensorNetwork.host[1].lo0.lo passedUpPk:sum(packetBytes) 0
attr interpolationmode none
attr source packetSentToUpper
attr title "packets passed to higher layer, sum(packetBytes)"
statistic SensorNetwork.host[1].wlan[0].queue queueingTime:histogram
field count 232
field mean 0
field stddev 0
field min 0
field max 0
field sum 0
field sqrsum 0
attr interpolationmode none
attr title "queueing time, histogram"
bin	-inf	0
bin	-0.5	0
bin	-0.48	0
bin	-0.46	0
bin	-0.44	0
bin	-0.42	0
bin	-0.4	0
bin	-0.38	0
bin	-0.36	0
bin	-0.34	0
bin	-0.32	0
bin	-0.3	0
bin	-0.28	0
bin	-0.26	0
bin	-0.24	0
bin	-0.22	0
bin	-0.2	0
bin	-0.18	0
bin	-0.16	0
bin	-0.14	0
bin	-0.12	0
bin	-0.1	0
bin	-0.08	0
bin	-0.06	0
bin	-0.04	0
bin	-0.02	0
bin	0	232
bin	0.02	0
bin	0.04	0
bin	0.06	0
bin	0.08	0
bin	0.1	0
bin	0.12	0
bin	0.14	0
bin	0.16	0
bin	0.18	0
bin	0.2	0
bin	0.22	0
bin	0.24	0
bin	0.26	0
bin	0.28	0
bin	0.3	0
bin	0.32	0
bin	0.34	0
bin	0.36	0
bin	0.38	0
bin	0.4	0
bin	0.42	0
bin	0.44	0
bin	0.46	0
bin	0.48	0
bin	0.5	0
scalar SensorNetwork.host[1].wlan[0].queue dropPk:count 0
attr interpolationmode none
attr source dropPkByQueue
attr title "dropped packets, count"
scalar SensorNetwork.host[1].wlan[0].queue dropPk:sum(packetBytes) 0
attr interpolationmode none
attr source dropPkByQueue
attr title "dropped packets, sum(packetBytes)"
scalar SensorNetwork.host[1].wlan[0].queue queueLength:max nan
attr interpolationmode sample-hold
attr title "queue length, max"
scalar SensorNetwork.host[1].wlan[0].queue queueLength:timeavg -nan
attr interpolationmode sample-hold
attr title "queue length, timeavg"
scalar SensorNetwork.host[1].wlan[0].queue rcvdPk:count 232
attr interpolationmode none
attr title "received packets, count"
scalar SensorNetwork.host[1].wlan[0].queue rcvdPk:sum(packetBytes) 6496
attr interpolationmode none
attr title "received packets, sum(packetBytes)"
scalar SensorNetwork.host[1].wlan[0].mac droppedPkNotForUs:count 0
attr interpolationmode none
attr source dropPkNotForUs
attr title "packets dropped/not for us, count"
scalar SensorNetwork.host[1].wlan[0].mac droppedPkNotForUs:sum(packetBytes) 0
attr interpolationmode none
attr source dropPkNotForUs
attr title "packets dropped/not for us, sum(packetBytes)"
scalar SensorNetwork.host[1].wlan[0].mac rcvdPkFromLL:count 179
attr interpolationmode none
attr source packetReceivedFromLower
attr title "packets received from lower layer, count"
scalar SensorNetwork.host[1].wlan[0].mac rcvdPkFromLL:sum(packetBytes) 5012
attr interpolationmode none
attr source packetReceivedFromLower
attr title "packets received from lower layer, sum(packetBytes)"
scalar SensorNetwork.host[1].wlan[0].mac sentDownPk:count 232
attr interpolationmode none
attr source packetSentToLower
attr title "packets sent to lower layer, count"
scalar SensorNetwork.host[1].wlan[0].mac sentDownPk:sum(packetBytes) 6496
attr interpolationmode none
attr source packetSentToLower
attr title "packets sent to lower layer, sum(packetBytes)"
scalar SensorNetwork.host[1].wlan[0].mac rcvdPkFromHL:count 232
attr interpolationmode none
attr source packetReceivedFromUpper
attr title "packets received from higher layer, count"
scalar SensorNetwork.host[1].wlan[0].mac rcvdPkFromHL:sum(packetBytes) 6496
attr interpolationmode none
attr source packetReceivedFromUpper
attr title "packets received from higher layer, sum(packetBytes)"
scalar SensorNetwork.host[1].wlan[0].mac passedUpPk:count 179
attr interpolationmode none
attr source packetSentToUpper
attr title "packets passed to higher layer, count"
scalar SensorNetwork.host[1].wlan[0].mac passedUpPk:sum(packetBytes) 5012
attr interpolationmode none
attr source packetSentToUpper
attr title "packets passed to higher layer, sum(packetBytes)"
scalar SensorNetwork.host[1].wlan[0].radio transmissionState:count 928
attr interpolationmode sample-hold
attr source transmissionStateChanged
attr title "Radio transmission state, count"
scalar SensorNetwork.host[1].wlan[0].radio receptionState:count 822
attr interpolationmode sample-hold
attr source receptionStateChanged
attr title "Radio reception state, count"
scalar SensorNetwork.host[1].wlan[0].radio radioMode:count 464
attr interpolationmode sample-hold
attr source radioModeChanged
attr title "Radio mode, count"
statistic SensorNetwork.host[1].wlan[0].radio symbolErrorRate:histogram
field count 179
field mean 0
field stddev 0
field min 0
field max 0
field sum 0
field sqrsum 0
attr source symbolErrorRate
attr title "Symbol error rate, histogram"
bin	-inf	0
bin	-0.5	0
bin	-0.48	0
bin	-0.46	0
bin	-0.44	0
bin	-0.42	0
bin	-0.4	0
bin	-0.38	0
bin	-0.36	0
bin	-0.34	0
bin	-0.32	0
bin	-0.3	0
bin	-0.28	0
bin	-0.26	0
bin	-0.24	0
bin	-0.22	0
bin	-0.2	0
bin	-0.18	0
bin	-0.16	0
bin	-0.14	0
bin	-0.12	0
bin	-0.1	0
bin	-0.08	0
bin	-0.06	0
bin	-0.04	0
bin	-0.02	0
bin	0	179
bin	0.02	0
bin	0.04	0
bin	0.06	0
bin	0.08	0
bin	0.1	0
bin	0.12	0
bin	0.14	0
bin	0.16	0
bin	0.18	0
bin	0.2	0
bin	0.22	0
bin	0.24	0
bin	0.26	0
bin	0.28	0
bin	0.3	0
bin	0.32	0
bin	0.34	0
bin	0.36	0
bin	0.38	0
bin	0.4	0
bin	0.42	0
bin	0.44	0
bin	0.46	0
bin	0.48	0
bin	0.5	0
statistic SensorNetwork.host[1].wlan[0].radio bitErrorRate:histogram
field count 179
field mean 0
field stddev 0
field min 0
field max 0
field sum 0
field sqrsum 0
attr source bitErrorRate
attr title "Bit error rate, histogram"
bin	-inf	0
bin	-0.5	0
bin	-0.48	0
bin	-0.46	0
bin	-0.44	0
bin	-0.42	0
bin	-0.4	0
bin	-0.38	0
bin	-0.36	0
bin	-0.34	0
bin	-0.32	0
bin	-0.3	0
bin	-0.28	0
bin	-0.26	0
bin	-0.24	0
bin	-0.22	0
bin	-0.2	0
bin	-0.18	0
bin	-0.16	0
bin	-0.14	0
bin	-0.12	0
bin	-0.1	0
bin	-0.08	0
bin	-0.06	0
bin	-0.04	0
bin	-0.02	0
bin	0	179
bin	0.02	0
bin	0.04	0
bin	0.06	0
bin	0.08	0
bin	0.1	0
bin	0.12	0
bin	0.14	0
bin	0.16	0
bin	0.18	0
bin	0.2	0
bin	0.22	0
bin	0.24	0
bin	0.26	0
bin	0.28	0
bin	0.3	0
bin	0.32	0
bin	0.34	0
bin	0.36	0
bin	0.38	0
bin	0.4	0
bin	0.42	0
bin	0.44	0
bin	0.46	0
bin	0.48	0
bin	0.5	0
statistic SensorNetwork.host[1].wlan[0].radio packetErrorRate:histogram
field count 179
field mean 0
field stddev 0
field min 0
field max 0
field sum 0
field sqrsum 0
attr source packetErrorRate
attr title "Packet error rate, histogram"
bin	-inf	0
bin	-0.5	0
bin	-0.48	0
bin	-0.46	0
bin	-0.44	0
bin	-0.42	0
bin	-0.4	0
bin	-0.38	0
bin	-0.36	0
bin	-0.34	0
bin	-0.32	0
bin	-0.3	0
bin	-0.28	0
bin	-0.26	0
bin	-0.24	0
bin	-0.22	0
bin	-0.2	0
bin	-0.18	0
bin	-0.16	0
bin	-0.14	0
bin	-0.12	0
bin	-0.1	0
bin	-0.08	0
bin	-0.06	0
bin	-0.04	0
bin	-0.02	0
bin	0	179
bin	0.02	0
bin	0.04	0
bin	0.06	0
bin	0.08	0
bin	0.1	0
bin	0.12	0
bin	0.14	0
bin	0.16	0
bin	0.18	0
bin	0.2	0
bin	0.22	0
bin	0.24	0
bin	0.26	0
bin	0.28	0
bin	0.3	0
bin	0.32	0
bin	0.34	0
bin	0.36	0
bin	0.38	0
bin	0.4	0
bin	0.42	0
bin	0.44	0
bin	0.46	0
bin	0.48	0
bin	0.5	0
statistic SensorNetwork.host[1].wlan[0].radio minSNIR:histogram
field count 0
field mean -nan
field stddev nan
field min nan
field max nan
field sum 0
field sqrsum 0
attr source minSNIR
attr title "Min SNIR, histogram"
bin	-inf	0
bin	0	0
bin	1	0
scalar SensorNetwork.host[2].networkLayer.arp failedARPResolution:count 0
attr title "ARP failed resolutions, count"
scalar SensorNetwork.host[2].networkLayer.arp completedARPResolution:count 0
attr title "ARP completed resolutions, count"
scalar SensorNetwork.host[2].networkLayer.arp initiatedARPResolution:count 0
attr title "ARP initiated resolutions, count"
scalar SensorNetwork.host[2].networkLayer.arp sentReply:count 0
attr title "ARP replies sent, count"
scalar SensorNetwork.host[2].networkLayer.arp sentReq:count 0
attr title "ARP request sent, count"
scalar SensorNetwork.host[2].lo0.lo droppedPkBitError:count 0
attr interpolationmode none
attr source dropPkBitError
attr title "packets dropped/bit error, count"
scalar SensorNetwork.host[2].lo0.lo droppedPkBitError:sum(packetBytes) 0
attr interpolationmode none
attr source dropPkBitError
attr title "packets dropped/bit error, sum(packetBytes)"
scalar SensorNetwork.host[2].lo0.lo rcvdPkFromHL:count 0
attr interpolationmode none
attr source packetReceivedFromUpper
attr title "packets received from higher layer, count"
scalar SensorNetwork.host[2].lo0.lo rcvdPkFromHL:sum(packetBytes) 0
attr interpolationmode none
attr source packetReceivedFromUpper
attr title "packets received from higher layer, sum(packetBytes)"
scalar SensorNetwork.host[2].lo0.lo passedUpPk:count 0
attr interpolationmode none
attr source packetSentToUpper
attr title "packets passed to higher layer, count"
scalar SensorNetwork.host[2].lo0.lo passedUpPk:sum(packetBytes) 0
attr interpolationmode none
attr source packetSentToUpper
attr title "packets passed to higher layer, sum(packetBytes)"
statistic SensorNetwork.host[2].wlan[0].queue queueingTime:histogram
field count 242
field mean 0
field stddev 0
field min 0
field max 0
field sum 0
field sqrsum 0
attr interpolationmode none
attr title "queueing time, histogram"
bin	-inf	0
bin	-0.5	0
bin	-0.48	0
bin	-0.46	0
bin	-0.44	0
bin	-0.42	0
bin	-0.4	0
bin	-0.38	0
bin	-0.36	0
bin	-0.34	0
bin	-0.32	0
bin	-0.3	0
bin	-0.28	0
bin	-0.26	0
bin	-0.24	0
bin	-0.22	0
bin	-0.2	0
bin	-0.18	0
bin	-0.16	0
bin	-0.14	0
bin	-0.12	0
bin	-0.1	0
bin	-0.08	0
bin	-0.06	0
bin	-0.04	0
bin	-0.02	0
bin	0	242
bin	0.02	0
bin	0.04	0
bin	0.06	0
bin	0.08	0
bin	0.1	0
bin	0.12	0
bin	0.14	0
bin	0.16	0
bin	0.18	0
bin	0.2	0
bin	0.22	0
bin	0.24	0
bin	0.26	0
bin	0.28	0
bin	0.3	0
bin	0.32	0
bin	0.34	0
bin	0.36	0
bin	0.38	0
bin	0.4	0
bin	0.42	0
bin	0.44	0
bin	0.46	0
bin	0.48	0
bin	0.5	0
scalar SensorNetwork.host[2].wlan[0].queue dropPk:count 0
attr interpolationmode none
attr source dropPkByQueue
attr title "dropped packets, count"
scalar SensorNetwork.host[2].wlan[0].queue dropPk:sum(packetBytes) 0
attr interpolationmode none
attr source dropPkByQueue
attr title "dropped packets, sum(packetBytes)"
scalar SensorNetwork.host[2].wlan[0].queue queueLength:max nan
attr interpolationmode sample-hold
attr title "queue length, max"
scalar SensorNetwork.host[2].wlan[0].queue queueLength:timeavg -nan
attr interpolationmode sample-hold
attr title "queue length, timeavg"
scalar SensorNetwork.host[2].wlan[0].queue rcvdPk:count 242
attr interpolationmode none
attr title "received packets, count"
scalar SensorNetwork.host[2].wlan[0].queue rcvdPk:sum(packetBytes) 6776
attr interpolationmode none
attr title "received packets, sum(packetBytes)"
scalar SensorNetwork.host[2].wlan[0].mac droppedPkNotForUs:count 0
attr interpolationmode none
attr source dropPkNotForUs
attr title "packets dropped/not for us, count"
scalar SensorNetwork.host[2].wlan[0].mac droppedPkNotForUs:sum(packetBytes) 0
attr interpolationmode none
attr source dropPkNotForUs
attr title "packets dropped/not for us, sum(packetBytes)"
scalar SensorNetwork.host[2].wlan[0].mac rcvdPkFromLL:count 171
attr interpolationmode none
attr source packetReceivedFromLower
attr title "packets received from lower layer, count"
scalar SensorNetwork.host[2].wlan[0].mac rcvdPkFromLL:sum(packetBytes) 4788
attr interpolationmode none
attr source packetReceivedFromLower
attr title "packets received from lower layer, sum(packetBytes)"
scalar SensorNetwork.host[2].wlan[0].mac sentDownPk:count 242
attr interpolationmode none
attr source packetSentToLower
attr title "packets sent to lower layer, count"
scalar SensorNetwork.host[2].wlan[0].mac sentDownPk:sum(packetBytes) 6776
attr interpolationmode none
attr source packetSentToLower
attr title "packets sent to lower layer, sum(packetBytes)"
scalar SensorNetwork.host[2].wlan[0].mac rcvdPkFromHL:count 242
attr interpolationmode none
attr source packetReceivedFromUpper
attr title "packets received from higher layer, count"
scalar SensorNetwork.host[2].wlan[0].mac rcvdPkFromHL:sum(packetBytes) 6776
attr interpolationmode none
attr source packetReceivedFromUpper
attr title "packets received from higher layer, sum(packetBytes)"
scalar SensorNetwork.host[2].wlan[0].mac passedUpPk:count 171
attr interpolationmode none
attr source packetSentToUpper
attr title "packets passed to higher layer, count"
scalar SensorNetwork.host[2].wlan[0].mac passedUpPk:sum(packetBytes) 4788
attr interpolationmode none
attr source packetSentToUpper
attr title "packets passed to higher layer, sum(packetBytes)"
scalar SensorNetwork.host[2].wlan[0].radio transmissionState:count 968
attr interpolationmode sample-hold
attr source transmissionStateChanged
attr title "Radio transmission state, count"
scalar SensorNetwork.host[2].wlan[0].radio receptionState:count 827
attr interpolationmode sample-hold
attr source receptionStateChanged
attr title "Radio reception state, count"
scalar SensorNetwork.host[2].wlan[0].radio radioMode:count 485
attr interpolationmode sample-hold
attr source radioModeChanged
attr title "Radio mode, count"
statistic SensorNetwork.host[2].wlan[0].radio symbolErrorRate:histogram
field count 171
field mean 0
field stddev 0
field min 0
field max 0
field sum 0
field sqrsum 0
attr source symbolErrorRate
attr title "Symbol error rate, histogram"
bin	-inf	0
bin	-0.5	0
bin	-0.48	0
bin	-0.46	0
bin	-0.44	0
bin	-0.42	0
bin	-0.4	0
bin	-0.38	0
bin	-0.36	0
bin	-0.34	0
bin	-0.32	0
bin	-0.3	0
bin	-0.28	0
bin	-0.26	0
bin	-0.24	0
bin	-0.22	0
bin	-0.2	0
bin	-0.18	0
bin	-0.16	0
bin	-0.14	0
bin	-0.12	0
bin	-0.1	0
bin	-0.08	0
bin	-0.06	0
bin	-0.04	0
bin	-0.02	0
bin	0	171
bin	0.02	0
bin	0.04	0
bin	0.06	0
bin	0.08	0
bin	0.1	0
bin	0.12	0
bin	0.14	0
bin	0.16	0
bin	0.18	0
bin	0.2	0
bin	0.22	0
bin	0.24	0
bin	0.26	0
bin	0.28	0
bin	0.3	0
bin	0.32	0
bin	0.34	0
bin	0.36	0
bin	0.38	0
bin	0.4	0
bin	0.42	0
bin	0.44	0
bin	0.46	0
bin	0.48	0
bin	0.5	0
statistic SensorNetwork.host[2].wlan[0].radio bitErrorRate:histogram
field count 171
field mean 0
field stddev 0
field min 0
field max 0
field sum 0
field sqrsum 0
attr source bitErrorRate
attr title "Bit error rate, histogram"
bin	-inf	0
bin	-0.5	0
bin	-0.48	0
bin	-0.46	0
bin	-0.44	0
bin	-0.42	0
bin	-0.4	0
bin	-0.38	0
bin	-0.36	0
bin	-0.34	0
bin	-0.32	0
bin	-0.3	0
bin	-0.28	0
bin	-0.26	0
bin	-0.24	0
bin	-0.22	0
bin	-0.2	0
bin	-0.18	0
bin	-0.16	0
bin	-0.14	0
bin	-0.12	0
bin	-0.1	0
bin	-0.08	0
bin	-0.06	0
bin	-0.04	0
bin	-0.02	0
bin	0	171
bin	0.02	0
bin	0.04	0
bin	0.06	0
bin	0.08	0
bin	0.1	0
bin	0.12	0
bin	0.14	0
bin	0.16	0
bin	0.18	0
bin	0.2	0
bin	0.22	0
bin	0.24	0
bin	0.26	0
bin	0.28	0
bin	0.3	0
bin	0.32	0
bin	0.34	0
bin	0.36	0
bin	0.38	0
bin	0.4	0
bin	0.42	0
bin	0.44	0
bin	0.46	0
bin	0.48	0
bin	0.5	0
statistic SensorNetwork.host[2].wlan[0].radio packetErrorRate:histogram
field count 171
field mean 0
field stddev 0
field min 0
field max 0
field sum 0
field sqrsum 0
attr source packetErrorRate
attr title "Packet error rate, histogram"
bin	-inf	0
bin	-0.5	0
bin	-0.48	0
bin	-0.46	0
bin	-0.44	0
bin	-0.42	0
bin	-0.4	0
bin	-0.38	0
bin	-0.36	0
bin	-0.34	0
bin	-0.32	0
bin	-0.3	0
bin	-0.28	0
bin	-0.26	0
bin	-0.24	0
bin	-0.22	0
bin	-0.2	0
bin	-0.18	0
bin	-0.16	0
bin	-0.14	0
bin	-0.12	0
bin	-0.1	0
bin	-0.08	0
bin	-0.06	0
bin	-0.04	0
bin	-0.02	0
bin	0	171
bin	0.02	0
bin	0.04	0
bin	0.06	0
bin	0.08	0
bin	0.1	0
bin	0.12	0
bin	0.14	0
bin	0.16	0
bin	0.18	0
bin	0.2	0
bin	0.22	0
bin	0.24	0
bin	0.26	0
bin	0.28	0
bin	0.3	0
bin	0.32	0
bin	0.34	0
bin	0.36	0
bin	0.38	0
bin	0.4	0
bin	0.42	0
bin	0.44	0
bin	0.46	0
bin	0.48	0
bin	0.5	0
statistic SensorNetwork.host[2].wlan[0].radio minSNIR:histogram
field count 0
field mean -nan
field stddev nan
field min nan
field max nan
field sum 0
field sqrsum 0
attr source minSNIR
attr title "Min SNIR, histogram"
bin	-inf	0
bin	0	0
bin	1	0
scalar SensorNetwork.host[3].networkLayer.arp failedARPResolution:count 0
attr title "ARP failed resolutions, count"
scalar SensorNetwork.host[3].networkLayer.arp completedARPResolution:count 0
attr title "ARP completed resolutions, count"
scalar SensorNetwork.host[3].networkLayer.arp initiatedARPResolution:count 0
attr title "ARP initiated resolutions, count"
scalar SensorNetwork.host[3].networkLayer.arp sentReply:count 0
attr title "ARP replies sent, count"
scalar SensorNetwork.host[3].networkLayer.arp sentReq:count 0
attr title "ARP request sent, count"
scalar SensorNetwork.host[3].lo0.lo droppedPkBitError:count 0
attr interpolationmode none
attr source dropPkBitError
attr title "packets dropped/bit error, count"
scalar SensorNetwork.host[3].lo0.lo droppedPkBitError:sum(packetBytes) 0
attr interpolationmode none
attr source dropPkBitError
attr title "packets dropped/bit error, sum(packetBytes)"
scalar SensorNetwork.host[3].lo0.lo rcvdPkFromHL:count 0
attr interpolationmode none
attr source packetReceivedFromUpper
attr title "packets received from higher layer, count"
scalar SensorNetwork.host[3].lo0.lo rcvdPkFromHL:sum(packetBytes) 0
attr interpolationmode none
attr source packetReceivedFromUpper
attr title "packets received from higher layer, sum(packetBytes)"
scalar SensorNetwork.host[3].lo0.lo passedUpPk:count 0
attr interpolationmode none
attr source packetSentToUpper
attr title "packets passed to higher layer, count"
scalar SensorNetwork.host[3].lo0.lo passedUpPk:sum(packetBytes) 0
attr interpolationmode none
attr source packetSentToUpper
attr title "packets passed to higher layer, sum(packetBytes)"
statistic SensorNetwork.host[3].wlan[0].queue queueingTime:histogram
field count 50
field mean 0
field stddev 0
field min 0
field max 0
field sum 0
field sqrsum 0
attr interpolationmode none
attr title "queueing time, histogram"
bin	-inf	0
bin	-0.5	0
bin	-0.48	0
bin	-0.46	0
bin	-0.44	0
bin	-0.42	0
bin	-0.4	0
bin	-0.38	0
bin	-0.36	0
bin	-0.34	0
bin	-0.32	0
bin	-0.3	0
bin	-0.28	0
bin	-0.26	0
bin	-0.24	0
bin	-0.22	0
bin	-0.2	0
bin	-0.18	0
bin	-0.16	0
bin	-0.14	0
bin	-0.12	0
bin	-0.1	0
bin	-0.08	0
bin	-0.06	0
bin	-0.04	0
bin	-0.02	0
bin	0	50
bin	0.02	0
bin	0.04	0
bin	0.06	0
bin	0.08	0
bin	0.1	0
bin	0.12	0
bin	0.14	0
bin	0.16	0
bin	0.18	0
bin	0.2	0
bin	0.22	0
bin	0.24	0
bin	0.26	0
bin	0.28	0
bin	0.3	0
bin	0.32	0
bin	0.34	0
bin	0.36	0
bin	0.38	0
bin	0.4	0
bin	0.42	0
bin	0.44	0
bin	0.46	0
bin	0.48	0
bin	0.5	0
scalar SensorNetwork.host[3].wlan[0].queue dropPk:count 0
attr interpolationmode none
attr source dropPkByQueue
attr title "dropped packets, count"
scalar SensorNetwork.host[3].wlan[0].queue dropPk:sum(packetBytes) 0
attr interpolationmode none
attr source dropPkByQueue
attr title "dropped packets, sum(packetBytes)"
scalar SensorNetwork.host[3].wlan[0].queue queueLength:max nan
attr interpolationmode sample-hold
attr title "queue length, max"
scalar SensorNetwork.host[3].wlan[0].queue queueLength:timeavg -nan
attr interpolationmode sample-hold
attr title "queue length, timeavg"
scalar SensorNetwork.host[3].wlan[0].queue rcvdPk:count 50
attr interpolationmode none
attr title "received packets, count"
scalar SensorNetwork.host[3].wlan[0].queue rcvdPk:sum(packetBytes) 1400
attr interpolationmode none
attr title "received packets, sum(packetBytes)"
scalar SensorNetwork.host[3].wlan[0].mac droppedPkNotForUs:count 0
attr interpolationmode none
attr source dropPkNotForUs
attr title "packets dropped/not for us, count"
scalar SensorNetwork.host[3].wlan[0].mac droppedPkNotForUs:sum(packetBytes) 0
attr interpolationmode none
attr source dropPkNotForUs
attr title "packets dropped/not for us, sum(packetBytes)"
scalar SensorNetwork.host[3].wlan[0].mac rcvdPkFromLL:count 40
attr interpolationmode none
attr source packetReceivedFromLower
attr title "packets received from lower layer, count"
scalar SensorNetwork.host[3].wlan[0].mac rcvdPkFromLL:sum(packetBytes) 1120
attr interpolationmode none
attr source packetReceivedFromLower
attr title "packets received from lower layer, sum(packetBytes)"
scalar SensorNetwork.host[3].wlan[0].mac sentDownPk:count 50
attr interpolationmode none
attr source packetSentToLower
attr title "packets sent to lower layer, count"
scalar SensorNetwork.host[3].wlan[0].mac sentDownPk:sum(packetBytes) 1400
attr interpolationmode none
attr source packetSentToLower
attr title "packets sent to lower layer, sum(packetBytes)"
scalar SensorNetwork.host[3].wlan[0].mac rcvdPkFromHL:count 50
attr interpolationmode none
attr source packetReceivedFromUpper
attr title "packets received from higher layer, count"
scalar SensorNetwork.host[3].wlan[0].mac rcvdPkFromHL:sum(packetBytes) 1400
attr interpolationmode none
attr source packetReceivedFromUpper
attr title "packets received from higher layer, sum(packetBytes)"
scalar SensorNetwork.host[3].wlan[0].mac passedUpPk:count 40
attr interpolationmode none
attr source packetSentToUpper
attr title "packets passed to higher layer, count"
scalar SensorNetwork.host[3].wlan[0].mac passedUpPk:sum(packetBytes) 1120
attr interpolationmode none
attr source packetSentToUpper
attr title "packets passed to higher layer, sum(packetBytes)"
scalar SensorNetwork.host[3].wlan[0].radio transmissionState:count 200
attr interpolationmode sample-hold
attr source transmissionStateChanged
attr title "Radio transmission state, count"
scalar SensorNetwork.host[3].wlan[0].radio receptionState:count 181
attr interpolationmode sample-hold
attr source receptionStateChanged
attr title "Radio reception state, count"
scalar SensorNetwork.host[3].wlan[0].radio radioMode:count 101
attr interpolationmode sample-hold
attr source radioModeChanged
attr title "Radio mode, count"
statistic SensorNetwork.host[3].wlan[0].radio symbolErrorRate:histogram
field count 40
field mean 0
field stddev 0
field min 0
field max 0
field sum 0
field sqrsum 0
attr source symbolErrorRate
attr title "Symbol error rate, histogram"
bin	-inf	0
bin	-0.5	0
bin	-0.48	0
bin	-0.46	0
bin	-0.44	0
bin	-0.42	0
bin	-0.4	0
bin	-0.38	0
bin	-0.36	0
bin	-0.34	0
bin	-0.32	0
bin	-0.3	0
bin	-0.28	0
bin	-0.26	0
bin	-0.24	0
bin	-0.22	0
bin	-0.2	0
bin	-0.18	0
bin	-0.16	0
bin	-0.14	0
bin	-0.12	0
bin	-0.1	0
bin	-0.08	0
bin	-0.06	0
bin	-0.04	0
bin	-0.02	0
bin	0	40
bin	0.02	0
bin	0.04	0
bin	0.06	0
bin	0.08	0
bin	0.1	0
bin	0.12	0
bin	0.14	0
bin	0.16	0
bin	0.18	0
bin	0.2	0
bin	0.22	0
bin	0.24	0
bin	0.26	0
bin	0.28	0
bin	0.3	0
bin	0.32	0
bin	0.34	0
bin	0.36	0
bin	0.38	0
bin	0.4	0
bin	0.42	0
bin	0.44	0
bin	0.46	0
bin	0.48	0
bin	0.5	0
statistic SensorNetwork.host[3].wlan[0].radio bitErrorRate:histogram
field count 40
field mean 0
field stddev 0
field min 0
field max 0
field sum 0
field sqrsum 0
attr source bitErrorRate
attr title "Bit error rate, histogram"
bin	-inf	0
bin	-0.5	0
bin	-0.48	0
bin	-0.46	0
bin	-0.44	0
bin	-0.42	0
bin	-0.4	0
bin	-0.38	0
bin	-0.36	0
bin	-0.34	0
bin	-0.32	0
bin	-0.3	0
bin	-0.28	0
bin	-0.26	0
bin	-0.24	0
bin	-0.22	0
bin	-0.2	0
bin	-0.18	0
bin	-0.16	0
bin	-0.14	0
bin	-0.12	0
bin	-0.1	0
bin	-0.08	0
bin	-0.06	0
bin	-0.04	0
bin	-0.02	0
bin	0	40
bin	0.02	0
bin	0.04	0
bin	0.06	0
bin	0.08	0
bin	0.1	0
bin	0.12	0
bin	0.14	0
bin	0.16	0
bin	0.18	0
bin	0.2	0
bin	0.22	0
bin	0.24	0
bin	0.26	0
bin	0.28	0
bin	0.3	0
bin	0.32	0
bin	0.34	0
bin	0.36	0
bin	0.38	0
bin	0.4	0
bin	0.42	0
bin	0.44	0
bin	0.46	0
bin	0.48	0
bin	0.5	0
statistic SensorNetwork.host[3].wlan[0].radio packetErrorRate:histogram
field count 40
field mean 0
field stddev 0
field min 0
field max 0
field sum 0
field sqrsum 0
attr source packetErrorRate
attr title "Packet error rate, histogram"
bin	-inf	0
bin	-0.5	0
bin	-0.48	0
bin	-0.46	0
bin	-0.44	0
bin	-0.42	0
bin	-0.4	0
bin	-0.38	0
bin	-0.36	0
bin	-0.34	0
bin	-0.32	0
bin	-0.3	0
bin	-0.28	0
bin	-0.26	0
bin	-0.24	0
bin	-0.22	0
bin	-0.2	0
bin	-0.18	0
bin	-0.16	0
bin	-0.14	0
bin	-0.12	0
bin	-0.1	0
bin	-0.08	0
bin	-0.06	0
bin	-0.04	0
bin	-0.02	0
bin	0	40
bin	0.02	0
bin	0.04	0
bin	0.06	0
bin	0.08	0
bin	0.1	0
bin	0.12	0
bin	0.14	0
bin	0.16	0
bin	0.18	0
bin	0.2	0
bin	0.22	0
bin	0.24	0
bin	0.26	0
bin	0.28	0
bin	0.3	0
bin	0.32	0
bin	0.34	0
bin	0.36	0
bin	0.38	0
bin	0.4	0
bin	0.42	0
bin	0.44	0
bin	0.46	0
bin	0.48	0
bin	0.5	0
statistic SensorNetwork.host[3].wlan[0].radio minSNIR:histogram
field count 0
field mean -nan
field stddev nan
field min nan
field max nan
field sum 0
field sqrsum 0
attr source minSNIR
attr title "Min SNIR, histogram"
bin	-inf	0
bin	0	0
bin	1	0
scalar SensorNetwork.host[4].networkLayer.arp failedARPResolution:count 0
attr title "ARP failed resolutions, count"
scalar SensorNetwork.host[4].networkLayer.arp completedARPResolution:count 0
attr title "ARP completed resolutions, count"
scalar SensorNetwork.host[4].networkLayer.arp initiatedARPResolution:count 0
attr title "ARP initiated resolutions, count"
scalar SensorNetwork.host[4].networkLayer.arp sentReply:count 0
attr title "ARP replies sent, count"
scalar SensorNetwork.host[4].networkLayer.arp sentReq:count 0
attr title "ARP request sent, count"
scalar SensorNetwork.host[4].lo0.lo droppedPkBitError:count 0
attr interpolationmode none
attr source dropPkBitError
attr title "packets dropped/bit error, count"
scalar SensorNetwork.host[4].lo0.lo droppedPkBitError:sum(packetBytes) 0
attr interpolationmode none
attr source dropPkBitError
attr title "packets dropped/bit error, sum(packetBytes)"
scalar SensorNetwork.host[4].lo0.lo rcvdPkFromHL:count 0
attr interpolationmode none
attr source packetReceivedFromUpper
attr title "packets received from higher layer, count"
scalar SensorNetwork.host[4].lo0.lo rcvdPkFromHL:sum(packetBytes) 0
attr interpolationmode none
attr source packetReceivedFromUpper
attr title "packets received from higher layer, sum(packetBytes)"
scalar SensorNetwork.host[4].lo0.lo passedUpPk:count 0
attr interpolationmode none
attr source packetSentToUpper
attr title "packets passed to higher layer, count"
scalar SensorNetwork.host[4].lo0.lo passedUpPk:sum(packetBytes) 0
attr interpolationmode none
attr source packetSentToUpper
attr title "packets passed to higher layer, sum(packetBytes)"
statistic SensorNetwork.host[4].wlan[0].queue queueingTime:histogram
field count 378
field mean 0
field stddev 0
field min 0
field max 0
field sum 0
field sqrsum 0
attr interpolationmode none
attr title "queueing time, histogram"
bin	-inf	0
bin	-0.5	0
bin	-0.48	0
bin	-0.46	0
bin	-0.44	0
bin	-0.42	0
bin	-0.4	0
bin	-0.38	0
bin	-0.36	0
bin	-0.34	0
bin	-0.32	0
bin	-0.3	0
bin	-0.28	0
bin	-0.26	0
bin	-0.24	0
bin	-0.22	0
bin	-0.2	0
bin	-0.18	0
bin	-0.16	0
bin	-0.14	0
bin	-0.12	0
bin	-0.1	0
bin	-0.08	0
bin	-0.06	0
bin	-0.04	0
bin	-0.02	0
bin	0	378
bin	0.02	0
bin	0.04	0
bin	0.06	0
bin	0.08	0
bin	0.1	0
bin	0.12	0
bin	0.14	0
bin	0.16	0
bin	0.18	0
bin	0.2	0
bin	0.22	0
bin	0.24	0
bin	0.26	0
bin	0.28	0
bin	0.3	0
bin	0.32	0
bin	0.34	0
bin	0.36	0
bin	0.38	0
bin	0.4	0
bin	0.42	0
bin	0.44	0
bin	0.46	0
bin	0.48	0
bin	0.5	0
scalar SensorNetwork.host[4].wlan[0].queue dropPk:count 0
attr interpolationmode none
attr source dropPkByQueue
attr title "dropped packets, count"
scalar SensorNetwork.host[4].wlan[0].queue dropPk:sum(packetBytes) 0
attr interpolationmode none
attr source dropPkByQueue
attr title "dropped packets, sum(packetBytes)"
scalar SensorNetwork.host[4].wlan[0].queue queueLength:max nan
attr interpolationmode sample-hold
attr title "queue length, max"
scalar SensorNetwork.host[4].wlan[0].queue queueLength:timeavg -nan
attr interpolationmode sample-hold
attr title "queue length, timeavg"
scalar SensorNetwork.host[4].wlan[0].queue rcvdPk:count 378
attr interpolationmode none
attr title "received packets, count"
scalar SensorNetwork.host[4].wlan[0].queue rcvdPk:sum(packetBytes) 10584
attr interpolationmode none
attr title "received packets, sum(packetBytes)"
scalar SensorNetwork.host[4].wlan[0].mac droppedPkNotForUs:count 0
attr interpolationmode none
attr source dropPkNotForUs
attr title "packets dropped/not for us, count"
scalar SensorNetwork.host[4].wlan[0].mac droppedPkNotForUs:sum(packetBytes) 0
attr interpolationmode none
attr source dropPkNotForUs
attr title "packets dropped/not for us, sum(packetBytes)"
scalar SensorNetwork.host[4].wlan[0].mac rcvdPkFromLL:count 202
attr interpolationmode none
attr source packetReceivedFromLower
attr title "packets received from lower layer, count"
scalar SensorNetwork.host[4].wlan[0].mac rcvdPkFromLL:sum(packetBytes) 5656
attr interpolationmode none
attr source packetReceivedFromLower
attr title "packets received from lower layer, sum(packetBytes)"
scalar SensorNetwork.host[4].wlan[0].mac sentDownPk:count 378
attr interpolationmode none
attr source packetSentToLower
attr title "packets sent to lower layer, count"
scalar SensorNetwork.host[4].wlan[0].mac sentDownPk:sum(packetBytes) 10584
attr interpolationmode none
attr source packetSentToLower
attr title "packets sent to lower layer, sum(packetBytes)"
scalar SensorNetwork.host[4].wlan[0].mac rcvdPkFromHL:count 378
attr interpolationmode none
attr source packetReceivedFromUpper
attr title "packets received from higher layer, count"
scalar SensorNetwork.host[4].wlan[0].mac rcvdPkFromHL:sum(packetBytes) 10584
attr interpolationmode none
attr source packetReceivedFromUpper
attr title "packets received from higher layer, sum(packetBytes)"
scalar SensorNetwork.host[4].wlan[0].mac passedUpPk:count 202
attr interpolationmode none
attr source packetSentToUpper
attr title "packets passed to higher layer, count"
scalar SensorNetwork.host[4].wlan[0].mac passedUpPk:sum(packetBytes) 5656
attr interpolationmode none
attr source packetSentToUpper
attr title "packets passed to higher layer, sum(packetBytes)"
scalar SensorNetwork.host[4].wlan[0].radio transmissionState:count 1512
attr interpolationmode sample-hold
attr source transmissionStateChanged
attr title "Radio transmission state, count"
scalar SensorNetwork.host[4].wlan[0].radio receptionState:count 1160
attr interpolationmode sample-hold
attr source receptionStateChanged
attr title "Radio reception state, count"
scalar SensorNetwork.host[4].wlan[0].radio radioMode:count 756
attr interpolationmode sample-hold
attr source radioModeChanged
attr title "Radio mode, count"
statistic SensorNetwork.host[4].wlan[0].radio symbolErrorRate:histogram
field count 202
field mean 0
field stddev 0
field min 0
field max 0
field sum 0
field sqrsum 0
attr source symbolErrorRate
attr title "Symbol error rate, histogram"
bin	-inf	0
bin	-0.5	0
bin	-0.48	0
bin	-0.46	0
bin	-0.44	0
bin	-0.42	0
bin	-0.4	0
bin	-0.38	0
bin	-0.36	0
bin	-0.34	0
bin	-0.32	0
bin	-0.3	0
bin	-0.28	0
bin	-0.26	0
bin	-0.24	0
bin	-0.22	0
bin	-0.2	0
bin	-0.18	0
bin	-0.16	0
bin	-0.14	0
bin	-0.12	0
bin	-0.1	0
bin	-0.08	0
bin	-0.06	0
bin	-0.04	0
bin	-0.02	0
bin	0	202
bin	0.02	0
bin	0.04	0
bin	0.06	0
bin	0.08	0
bin	0.1	0
bin	0.12	0
bin	0.14	0
bin	0.16	0
bin	0.18	0
bin	0.2	0
bin	0.22	0
bin	0.24	0
bin	0.26	0
bin	0.28	0
bin	0.3	0
bin	0.32	0
bin	0.34	0
bin	0.36	0
bin	0.38	0
bin	0.4	0
bin	0.42	0
bin	0.44	0
bin	0.46	0
bin	0.48	0
bin	0.5	0
statistic SensorNetwork.host[4].wlan[0].radio bitErrorRate:histogram
field count 202
field mean 0
field stddev 0
field min 0
field max 0
field sum 0
field sqrsum 0
attr source bitErrorRate
attr title "Bit error rate, histogram"
bin	-inf	0
bin	-0.5	0
bin	-0.48	0
bin	-0.46	0
bin	-0.44	0
bin	-0.42	0
bin	-0.4	0
bin	-0.38	0
bin	-0.36	0
bin	-0.34	0
bin	-0.32	0
bin	-0.3	0
bin	-0.28	0
bin	-0.26	0
bin	-0.24	0
bin	-0.22	0
bin	-0.2	0
bin	-0.18	0
bin	-0.16	0
bin	-0.14	0
bin	-0.12	0
bin	-0.1	0
bin	-0.08	0
bin	-0.06	0
bin	-0.04	0
bin	-0.02	0
bin	0	202
bin	0.02	0
bin	0.04	0
bin	0.06	0
bin	0.08	0
bin	0.1	0
bin	0.12	0
bin	0.14	0
bin	0.16	0
bin	0.18	0
bin	0.2	0
bin	0.22	0
bin	0.24	0
bin	0.26	0
bin	0.28	0
bin	0.3	0
bin	0.32	0
bin	0.34	0
bin	0.36	0
bin	0.38	0
bin	0.4	0
bin	0.42	0
bin	0.44	0
bin	0.46	0
bin	0.48	0
bin	0.5	0
statistic SensorNetwork.host[4].wlan[0].radio packetErrorRate:histogram
field count 202
field mean 0
field stddev 0
field min 0
field max 0
field sum 0
field sqrsum 0
attr source packetErrorRate
attr title "Packet error rate, histogram"
bin	-inf	0
bin	-0.5	0
bin	-0.48	0
bin	-0.46	0
bin	-0.44	0
bin	-0.42	0
bin	-0.4	0
bin	-0.38	0
bin	-0.36	0
bin	-0.34	0
bin	-0.32	0
bin	-0.3	0
bin	-0.28	0
bin	-0.26	0
bin	-0.24	0
bin	-0.22	0
bin	-0.2	0
bin	-0.18	0
bin	-0.16	0
bin	-0.14	0
bin	-0.12	0
bin	-0.1	0
bin	-0.08	0
bin	-0.06	0
bin	-0.04	0
bin	-0.02	0
bin	0	202
bin	0.02	0
bin	0.04	0
bin	0.06	0
bin	0.08	0
bin	0.1	0
bin	0.12	0
bin	0.14	0
bin	0.16	0
bin	0.18	0
bin	0.2	0
bin	0.22	0
bin	0.24	0
bin	0.26	0
bin	0.28	0
bin	0.3	0
bin	0.32	0
bin	0.34	0
bin	0.36	0
bin	0.38	0
bin	0.4	0
bin	0.42	0
bin	0.44	0
bin	0.46	0
bin	0.48	0
bin	0.5	0
statistic SensorNetwork.host[4].wlan[0].radio minSNIR:histogram
field count 0
field mean -nan
field stddev nan
field min nan
field max nan
field sum 0
field sqrsum 0
attr source minSNIR
attr title "Min SNIR, histogram"
bin	-inf	0
bin	0	0
bin	1	0
scalar SensorNetwork.host[5].networkLayer.arp failedARPResolution:count 0
attr title "ARP failed resolutions, count"
scalar SensorNetwork.host[5].networkLayer.arp completedARPResolution:count 0
attr title "ARP completed resolutions, count"
scalar SensorNetwork.host[5].networkLayer.arp initiatedARPResolution:count 0
attr title "ARP initiated resolutions, count"
scalar SensorNetwork.host[5].networkLayer.arp sentReply:count 0
attr title "ARP replies sent, count"
scalar SensorNetwork.host[5].networkLayer.arp sentReq:count 0
attr title "ARP request sent, count"
scalar SensorNetwork.host[5].lo0.lo droppedPkBitError:count 0
attr interpolationmode none
attr source dropPkBitError
attr title "packets dropped/bit error, count"
scalar SensorNetwork.host[5].lo0.lo droppedPkBitError:sum(packetBytes) 0
attr interpolationmode none
attr source dropPkBitError
attr title "packets dropped/bit error, sum(packetBytes)"
scalar SensorNetwork.host[5].lo0.lo rcvdPkFromHL:count 0
attr interpolationmode none
attr source packetReceivedFromUpper
attr title "packets received from higher layer, count"
scalar SensorNetwork.host[5].lo0.lo rcvdPkFromHL:sum(packetBytes) 0
attr interpolationmode none
attr source packetReceivedFromUpper
attr title "packets received from higher layer, sum(packetBytes)"
scalar SensorNetwork.host[5].lo0.lo passedUpPk:count 0
attr interpolationmode none
attr source packetSentToUpper
attr title "packets passed to higher layer, count"
scalar SensorNetwork.host[5].lo0.lo passedUpPk:sum(packetBytes) 0
attr interpolationmode none
attr source packetSentToUpper
attr title "packets passed to higher layer, sum(packetBytes)"
statistic SensorNetwork.host[5].wlan[0].queue queueingTime:histogram
field count 396
field mean 0
field stddev 0
field min 0
field max 0
field sum 0
field sqrsum 0
attr interpolationmode none
attr title "queueing time, histogram"
bin	-inf	0
bin	-0.5	0
bin	-0.48	0
bin	-0.46	0
bin	-0.44	0
bin	-0.42	0
bin	-0.4	0
bin	-0.38	0
bin	-0.36	0
bin	-0.34	0
bin	-0.32	0
bin	-0.3	0
bin	-0.28	0
bin	-0.26	0
bin	-0.24	0
bin	-0.22	0
bin	-0.2	0
bin	-0.18	0
bin	-0.16	0
bin	-0.14	0
bin	-0.12	0
bin	-0.1	0
bin	-0.08	0
bin	-0.06	0
bin	-0.04	0
bin	-0.02	0
bin	0	396
bin	0.02	0
bin	0.04	0
bin	0.06	0
bin	0.08	0
bin	0.1	0
bin	0.12	0
bin	0.14	0
bin	0.16	0
bin	0.18	0
bin	0.2	0
bin	0.22	0
bin	0.24	0
bin	0.26	0
bin	0.28	0
bin	0.3	0
bin	0.32	0
bin	0.34	0
bin	0.36	0
bin	0.38	0
bin	0.4	0
bin	0.42	0
bin	0.44	0
bin	0.46	0
bin	0.48	0
bin	0.5	0
scalar SensorNetwork.host[5].wlan[0].queue dropPk:count 0
attr interpolationmode none
attr source dropPkByQueue
attr title "dropped packets, count"
scalar SensorNetwork.host[5].wlan[0].queue dropPk:sum(packetBytes) 0
attr interpolationmode none
attr source dropPkByQueue
attr title "dropped packets, sum(packetBytes)"
scalar SensorNetwork.host[5].wlan[0].queue queueLength:max nan
attr interpolationmode sample-hold
attr title "queue length, max"
scalar SensorNetwork.host[5].wlan[0].queue queueLength:timeavg -nan
attr interpolationmode sample-hold
attr title "queue length, timeavg"
scalar SensorNetwork.host[5].wlan[0].queue rcvdPk:count 396
attr interpolationmode none
attr title "received packets, count"
scalar SensorNetwork.host[5].wlan[0].queue rcvdPk:sum(packetBytes) 11088
attr interpolationmode none
attr title "received packets, sum(packetBytes)"
scalar SensorNetwork.host[5].wlan[0].mac droppedPkNotForUs:count 0
attr interpolationmode none
attr source dropPkNotForUs
attr title "packets dropped/not for us, count"
scalar SensorNetwork.host[5].wlan[0].mac droppedPkNotForUs:sum(packetBytes) 0
attr interpolationmode none
attr source dropPkNotForUs
attr title "packets dropped/not for us, sum(packetBytes)"
scalar SensorNetwork.host[5].wlan[0].mac rcvdPkFromLL:count 185
attr interpolationmode none
attr source packetReceivedFromLower
attr title "packets received from lower layer, count"
scalar SensorNetwork.host[5].wlan[0].mac rcvdPkFromLL:sum(packetBytes) 5180
attr interpolationmode none
attr source packetReceivedFromLower
attr title "packets received from lower layer, sum(packetBytes)"
scalar SensorNetwork.host[5].wlan[0].mac sentDownPk:count 396
attr interpolationmode none
attr source packetSentToLower
attr title "packets sent to lower layer, count"
scalar SensorNetwork.host[5].wlan[0].mac sentDownPk:sum(packetBytes) 11088
attr interpolationmode none
attr source packetSentToLower
attr title "packets sent to lower layer, sum(packetBytes)"
scalar SensorNetwork.host[5].wlan[0].mac rcvdPkFromHL:count 396
attr interpolationmode none
attr source packetReceivedFromUpper
attr title "packets received from higher layer, count"
scalar SensorNetwork.host[5].wlan[0].mac rcvdPkFromHL:sum(packetBytes) 11088
attr interpolationmode none
attr source packetReceivedFromUpper
attr title "packets received from higher layer, sum(packetBytes)"
scalar SensorNetwork.host[5].wlan[0].mac passedUpPk:count 185
attr interpolationmode none
attr source packetSentToUpper
attr title "packets passed to higher layer, count"
scalar SensorNetwork.host[5].wlan[0].mac passedUpPk:sum(packetBytes) 5180
attr interpolationmode none
attr source packetSentToUpper
attr title "packets passed to higher layer, sum(packetBytes)"
scalar SensorNetwork.host[5].wlan[0].radio transmissionState:count 1584
attr interpolationmode sample-hold
attr source transmissionStateChanged
attr title "Radio transmission state, count"
scalar SensorNetwork.host[5].wlan[0].radio receptionState:count 1162
attr interpolationmode sample-hold
attr source receptionStateChanged
attr title "Radio reception state, count"
scalar SensorNetwork.host[5].wlan[0].radio radioMode:count 792
attr interpolationmode sample-hold
attr source radioModeChanged
attr title "Radio mode, count"
statistic SensorNetwork.host[5].wlan[0].radio symbolErrorRate:histogram
field count 185
field mean 0
field stddev 0
field min 0
field max 0
field sum 0
field sqrsum 0
attr source symbolErrorRate
attr title "Symbol error rate, histogram"
bin	-inf	0
bin	-0.5	0
bin	-0.48	0
bin	-0.46	0
bin	-0.44	0
bin	-0.42	0
bin	-0.4	0
bin	-0.38	0
bin	-0.36	0
bin	-0.34	0
bin	-0.32	0
bin	-0.3	0
bin	-0.28	0
bin	-0.26	0
bin	-0.24	0
bin	-0.22	0
bin	-0.2	0
bin	-0.18	0
bin	-0.16	0
bin	-0.14	0
bin	-0.12	0
bin	-0.1	0
bin	-0.08	0
bin	-0.06	0
bin	-0.04	0
bin	-0.02	0
bin	0	185
bin	0.02	0
bin	0.04	0
bin	0.06	0
bin	0.08	0
bin	0.1	0
bin	0.12	0
bin	0.14	0
bin	0.16	0
bin	0.18	0
bin	0.2	0
bin	0.22	0
bin	0.24	0
bin	0.26	0
bin	0.28	0
bin	0.3	0
bin	0.32	0
bin	0.34	0
bin	0.36	0
bin	0.38	0
bin	0.4	0
bin	0.42	0
bin	0.44	0
bin	0.46	0
bin	0.48	0
bin	0.5	0
statistic SensorNetwork.host[5].wlan[0].radio bitErrorRate:histogram
field count 185
field mean 0
field stddev 0
field min 0
field max 0
field sum 0
field sqrsum 0
attr source bitErrorRate
attr title "Bit error rate, histogram"
bin	-inf	0
bin	-0.5	0
bin	-0.48	0
bin	-0.46	0
bin	-0.44	0
bin	-0.42	0
bin	-0.4	0
bin	-0.38	0
bin	-0.36	0
bin	-0.34	0
bin	-0.32	0
bin	-0.3	0
bin	-0.28	0
bin	-0.26	0
bin	-0.24	0
bin	-0.22	0
bin	-0.2	0
bin	-0.18	0
bin	-0.16	0
bin	-0.14	0
bin	-0.12	0
bin	-0.1	0
bin	-0.08	0
bin	-0.06	0
bin	-0.04	0
bin	-0.02	0
bin	0	185
bin	0.02	0
bin	0.04	0
bin	0.06	0
bin	0.08	0
bin	0.1	0
bin	0.12	0
bin	0.14	0
bin	0.16	0
bin	0.18	0
bin	0.2	0
bin	0.22	0
bin	0.24	0
bin	0.26	0
bin	0.28	0
bin	0.3	0
bin	0.32	0
bin	0.34	0
bin	0.36	0
bin	0.38	0
bin	0.4	0
bin	0.42	0
bin	0.44	0
bin	0.46	0
bin	0.48	0
bin	0.5	0
statistic SensorNetwork.host[5].wlan[0].radio packetErrorRate:histogram
field count 185
field mean 0
field stddev 0
field min 0
field max 0
field sum 0
field sqrsum 0
attr source packetErrorRate
attr title "Packet error rate, histogram"
bin	-inf	0
bin	-0.5	0
bin	-0.48	0
bin	-0.46	0
bin	-0.44	0
bin	-0.42	0
bin	-0.4	0
bin	-0.38	0
bin	-0.36	0
bin	-0.34	0
bin	-0.32	0
bin	-0.3	0
bin	-0.28	0
bin	-0.26	0
bin	-0.24	0
bin	-0.22	0
bin	-0.2	0
bin	-0.18	0
bin	-0.16	0
bin	-0.14	0
bin	-0.12	0
bin	-0.1	0
bin	-0.08	0
bin	-0.06	0
bin	-0.04	0
bin	-0.02	0
bin	0	185
bin	0.02	0
bin	0.04	0
bin	0.06	0
bin	0.08	0
bin	0.1	0
bin	0.12	0
bin	0.14	0
bin	0.16	0
bin	0.18	0
bin	0.2	0
bin	0.22	0
bin	0.24	0
bin	0.26	0
bin	0.28	0
bin	0.3	0
bin	0.32	0
bin	0.34	0
bin	0.36	0
bin	0.38	0
bin	0.4	0
bin	0.42	0
bin	0.44	0
bin	0.46	0
bin	0.48	0
bin	0.5	0
statistic SensorNetwork.host[5].wlan[0].radio minSNIR:histogram
field count 0
field mean -nan
field stddev nan
field min nan
field max nan
field sum 0
field sqrsum 0
attr source minSNIR
attr title "Min SNIR, histogram"
bin	-inf	0
bin	0	0
bin	1	0
scalar SensorNetwork.host[6].networkLayer.arp failedARPResolution:count 0
attr title "ARP failed resolutions, count"
scalar SensorNetwork.host[6].networkLayer.arp completedARPResolution:count 0
attr title "ARP completed resolutions, count"
scalar SensorNetwork.host[6].networkLayer.arp initiatedARPResolution:count 0
attr title "ARP initiated resolutions, count"
scalar SensorNetwork.host[6].networkLayer.arp sentReply:count 0
attr title "ARP replies sent, count"
scalar SensorNetwork.host[6].networkLayer.arp sentReq:count 0
attr title "ARP request sent, count"
scalar SensorNetwork.host[6].lo0.lo droppedPkBitError:count 0
attr interpolationmode none
attr source dropPkBitError
attr title "packets dropped/bit error, count"
scalar SensorNetwork.host[6].lo0.lo droppedPkBitError:sum(packetBytes) 0
attr interpolationmode none
attr source dropPkBitError
attr title "packets dropped/bit error, sum(packetBytes)"
scalar SensorNetwork.host[6].lo0.lo rcvdPkFromHL:count 0
attr interpolationmode none
attr source packetReceivedFromUpper
attr title "packets received from higher layer, count"
scalar SensorNetwork.host[6].lo0.lo rcvdPkFromHL:sum(packetBytes) 0
attr interpolationmode none
attr source packetReceivedFromUpper
attr title "packets received from higher layer, sum(packetBytes)"
scalar SensorNetwork.host[6].lo0.lo passedUpPk:count 0
attr interpolationmode none
attr source packetSentToUpper
attr title "packets passed to higher layer, count"
scalar SensorNetwork.host[6].lo0.lo passedUpPk:sum(packetBytes) 0
attr interpolationmode none
attr source packetSentToUpper
attr title "packets passed to higher layer, sum(packetBytes)"
statistic SensorNetwork.host[6].wlan[0].queue queueingTime:histogram
field count 221
field mean 0
field stddev 0
field min 0
field max 0
field sum 0
field sqrsum 0
attr interpolationmode none
attr title "queueing time, histogram"
bin	-inf	0
bin	-0.5	0
bin	-0.48	0
bin	-0.46	0
bin	-0.44	0
bin	-0.42	0
bin	-0.4	0
bin	-0.38	0
bin	-0.36	0
bin	-0.34	0
bin	-0.32	0
bin	-0.3	0
bin	-0.28	0
bin	-0.26	0
bin	-0.24	0
bin	-0.22	0
bin	-0.2	0
bin	-0.18	0
bin	-0.16	0
bin	-0.14	0
bin	-0.12	0
bin	-0.1	0
bin	-0.08	0
bin	-0.06	0
bin	-0.04	0
bin	-0.02	0
bin	0	221
bin	0.02	0
bin	0.04	0
bin	0.06	0
bin	0.08	0
bin	0.1	0
bin	0.12	0
bin	0.14	0
bin	0.16	0
bin	0.18	0
bin	0.2	0
bin	0.22	0
bin	0.24	0
bin	0.26	0
bin	0.28	0
bin	0.3	0
bin	0.32	0
bin	0.34	0
bin	0.36	0
bin	0.38	0
bin	0.4	0
bin	0.42	0
bin	0.44	0
bin	0.46	0
bin	0.48	0
bin	0.5	0
scalar SensorNetwork.host[6].wlan[0].queue dropPk:count 0
attr interpolationmode none
attr source dropPkByQueue
attr title "dropped packets, count"
scalar SensorNetwork.host[6].wlan[0].queue dropPk:sum(packetBytes) 0
attr interpolationmode none
attr source dropPkByQueue
attr title "dropped packets, sum(packetBytes)"
scalar SensorNetwork.host[6].wlan[0].queue queueLength:max nan
attr interpolationmode sample-hold
attr title "queue length, max"
scalar SensorNetwork.host[6].wlan[0].queue queueLength:timeavg -nan
attr interpolationmode sample-hold
attr title "queue length, timeavg"
scalar SensorNetwork.host[6].wlan[0].queue rcvdPk:count 221
attr interpolationmode none
attr title "received packets, count"
scalar SensorNetwork.host[6].wlan[0].queue rcvdPk:sum(packetBytes) 6188
attr interpolationmode none
attr title "received packets, sum(packetBytes)"
scalar SensorNetwork.host[6].wlan[0].mac droppedPkNotForUs:count 0
attr interpolationmode none
attr source dropPkNotForUs
attr title "packets dropped/not for us, count"
scalar SensorNetwork.host[6].wlan[0].mac droppedPkNotForUs:sum(packetBytes) 0
attr interpolationmode none
attr source dropPkNotForUs
attr title "packets dropped/not for us, sum(packetBytes)"
scalar SensorNetwork.host[6].wlan[0].mac rcvdPkFromLL:count 158
attr interpolationmode none
attr source packetReceivedFromLower
attr title "packets received from lower layer, count"
scalar SensorNetwork.host[6].wlan[0].mac rcvdPkFromLL:sum(packetBytes) 4424
attr interpolationmode none
attr source packetReceivedFromLower
attr title "packets received from lower layer, sum(packetBytes)"
scalar SensorNetwork.host[6].wlan[0].mac sentDownPk:count 221
attr interpolationmode none
attr source packetSentToLower
attr title "packets sent to lower layer, count"
scalar SensorNetwork.host[6].wlan[0].mac sentDownPk:sum(packetBytes) 6188
attr interpolationmode none
attr source packetSentToLower
attr title "packets sent to lower layer, sum(packetBytes)"
scalar SensorNetwork.host[6].wlan[0].mac rcvdPkFromHL:count 221
attr interpolationmode none
attr source packetReceivedFromUpper
attr title "packets received from higher layer, count"
scalar SensorNetwork.host[6].wlan[0].mac rcvdPkFromHL:sum(packetBytes) 6188
attr interpolationmode none
attr source packetReceivedFromUpper
attr title "packets received from higher layer, sum(packetBytes)"
scalar SensorNetwork.host[6].wlan[0].mac passedUpPk:count 158
attr interpolationmode none
attr source packetSentToUpper
attr title "packets passed to higher layer, count"
scalar SensorNetwork.host[6].wlan[0].mac passedUpPk:sum(packetBytes) 4424
attr interpolationmode none
attr source packetSentToUpper
attr title "packets passed to higher layer, sum(packetBytes)"
scalar SensorNetwork.host[6].wlan[0].radio transmissionState:count 884
attr interpolationmode sample-hold
attr source transmissionStateChanged
attr title "Radio transmission state, count"
scalar SensorNetwork.host[6].wlan[0].radio receptionState:count 759
attr interpolationmode sample-hold
attr source receptionStateChanged
attr title "Radio reception state, count"
scalar SensorNetwork.host[6].wlan[0].radio radioMode:count 443
attr interpolationmode sample-hold
attr source radioModeChanged
attr title "Radio mode, count"
statistic SensorNetwork.host[6].wlan[0].radio symbolErrorRate:histogram
field count 158
field mean 0
field stddev 0
field min 0
field max 0
field sum 0
field sqrsum 0
attr source symbolErrorRate
attr title "Symbol error rate, histogram"
bin	-inf	0
bin	-0.5	0
bin	-0.48	0
bin	-0.46	0
bin	-0.44	0
bin	-0.42	0
bin	-0.4	0
bin	-0.38	0
bin	-0.36	0
bin	-0.34	0
bin	-0.32	0
bin	-0.3	0
bin	-0.28	0
bin	-0.26	0
bin	-0.24	0
bin	-0.22	0
bin	-0.2	0
bin	-0.18	0
bin	-0.16	0
bin	-0.14	0
bin	-0.12	0
bin	-0.1	0
bin	-0.08	0
bin	-0.06	0
bin	-0.04	0
bin	-0.02	0
bin	0	158
bin	0.02	0
bin	0.04	0
bin	0.06	0
bin	0.08	0
bin	0.1	0
bin	0.12	0
bin	0.14	0
bin	0.16	0
bin	0.18	0
bin	0.2	0
bin	0.22	0
bin	0.24	0
bin	0.26	0
bin	0.28	0
bin	0.3	0
bin	0.32	0
bin	0.34	0
bin	0.36	0
bin	0.38	0
bin	0.4	0
bin	0.42	0
bin	0.44	0
bin	0.46	0
bin	0.48	0
bin	0.5	0
statistic SensorNetwork.host[6].wlan[0].radio bitErrorRate:histogram
field count 158
field mean 0
field stddev 0
field min 0
field max 0
field sum 0
field sqrsum 0
attr source bitErrorRate
attr title "Bit error rate, histogram"
bin	-inf	0
bin	-0.5	0
bin	-0.48	0
bin	-0.46	0
bin	-0.44	0
bin	-0.42	0
bin	-0.4	0
bin	-0.38	0
bin	-0.36	0
bin	-0.34	0
bin	-0.32	0
bin	-0.3	0
bin	-0.28	0
bin	-0.26	0
bin	-0.24	0
bin	-0.22	0
bin	-0.2	0
bin	-0.18	0
bin	-0.16	0
bin	-0.14	0
bin	-0.12	0
bin	-0.1	0
bin	-0.08	0
bin	-0.06	0
bin	-0.04	0
bin	-0.02	0
bin	0	158
bin	0.02	0
bin	0.04	0
bin	0.06	0
bin	0.08	0
bin	0.1	0
bin	0.12	0
bin	0.14	0
bin	0.16	0
bin	0.18	0
bin	0.2	0
bin	0.22	0
bin	0.24	0
bin	0.26	0
bin	0.28	0
bin	0.3	0
bin	0.32	0
bin	0.34	0
bin	0.36	0
bin	0.38	0
bin	0.4	0
bin	0.42	0
bin	0.44	0
bin	0.46	0
bin	0.48	0
bin	0.5	0
statistic SensorNetwork.host[6].wlan[0].radio packetErrorRate:histogram
field count 158
field mean 0
field stddev 0
field min 0
field max 0
field sum 0
field sqrsum 0
attr source packetErrorRate
attr title "Packet error rate, histogram"
bin	-inf	0
bin	-0.5	0
bin	-0.48	0
bin	-0.46	0
bin	-0.44	0
bin	-0.42	0
bin	-0.4	0
bin	-0.38	0
bin	-0.36	0
bin	-0.34	0
bin	-0.32	0
bin	-0.3	0
bin	-0.28	0
bin	-0.26	0
bin	-0.24	0
bin	-0.22	0
bin	-0.2	0
bin	-0.18	0
bin	-0.16	0
bin	-0.14	0
bin	-0.12	0
bin	-0.1	0
bin	-0.08	0
bin	-0.06	0
bin	-0.04	0
bin	-0.02	0
bin	0	158
bin	0.02	0
bin	0.04	0
bin	0.06	0
bin	0.08	0
bin	0.1	0
bin	0.12	0
bin	0.14	0
bin	0.16	0
bin	0.18	0
bin	0.2	0
bin	0.22	0
bin	0.24	0
bin	0.26	0
bin	0.28	0
bin	0.3	0
bin	0.32	0
bin	0.34	0
bin	0.36	0
bin	0.38	0
bin	0.4	0
bin	0.42	0
bin	0.44	0
bin	0.46	0
bin	0.48	0
bin	0.5	0
statistic SensorNetwork.host[6].wlan[0].radio minSNIR:histogram
field count 0
field mean -nan
field stddev nan
field min nan
field max nan
field sum 0
field sqrsum 0
attr source minSNIR
attr title "Min SNIR, histogram"
bin	-inf	0
bin	0	0
bin	1	0
scalar SensorNetwork.host[7].networkLayer.arp failedARPResolution:count 0
attr title "ARP failed resolutions, count"
scalar SensorNetwork.host[7].networkLayer.arp completedARPResolution:count 0
attr title "ARP completed resolutions, count"
scalar SensorNetwork.host[7].networkLayer.arp initiatedARPResolution:count 0
attr title "ARP initiated resolutions, count"
scalar SensorNetwork.host[7].networkLayer.arp sentReply:count 0
attr title "ARP replies sent, count"
scalar SensorNetwork.host[7].networkLayer.arp sentReq:count 0
attr title "ARP request sent, count"
scalar SensorNetwork.host[7].lo0.lo droppedPkBitError:count 0
attr interpolationmode none
attr source dropPkBitError
attr title "packets dropped/bit error, count"
scalar SensorNetwork.host[7].lo0.lo droppedPkBitError:sum(packetBytes) 0
attr interpolationmode none
attr source dropPkBitError
attr title "packets dropped/bit error, sum(packetBytes)"
scalar SensorNetwork.host[7].lo0.lo rcvdPkFromHL:count 0
attr interpolationmode none
attr source packetReceivedFromUpper
attr title "packets received from higher layer, count"
scalar SensorNetwork.host[7].lo0.lo rcvdPkFromHL:sum(packetBytes) 0
attr interpolationmode none
attr source packetReceivedFromUpper
attr title "packets received from higher layer, sum(packetBytes)"
scalar SensorNetwork.host[7].lo0.lo passedUpPk:count 0
attr interpolationmode none
attr source packetSentToUpper
attr title "packets passed to higher layer, count"
scalar SensorNetwork.host[7].lo0.lo passedUpPk:sum(packetBytes) 0
attr interpolationmode none
attr source packetSentToUpper
attr title "packets passed to higher layer, sum(packetBytes)"
statistic SensorNetwork.host[7].wlan[0].queue queueingTime:histogram
field count 321
field mean 0
field stddev 0
field min 0
field max 0
field sum 0
field sqrsum 0
attr interpolationmode none
attr title "queueing time, histogram"
bin	-inf	0
bin	-0.5	0
bin	-0.48	0
bin	-0.46	0
bin	-0.44	0
bin	-0.42	0
bin	-0.4	0
bin	-0.38	0
bin	-0.36	0
bin	-0.34	0
bin	-0.32	0
bin	-0.3	0
bin	-0.28	0
bin	-0.26	0
bin	-0.24	0
bin	-0.22	0
bin	-0.2	0
bin	-0.18	0
bin	-0.16	0
bin	-0.14	0
bin	-0.12	0
bin	-0.1	0
bin	-0.08	0
bin	-0.06	0
bin	-0.04	0
bin	-0.02	0
bin	0	321
bin	0.02	0
bin	0.04	0
bin	0.06	0
bin	0.08	0
bin	0.1	0
bin	0.12	0
bin	0.14	0
bin	0.16	0
bin	0.18	0
bin	0.2	0
bin	0.22	0
bin	0.24	0
bin	0.26	0
bin	0.28	0
bin	0.3	0
bin	0.32	0
bin	0.34	0
bin	0.36	0
bin	0.38	0
bin	0.4	0
bin	0.42	0
bin	0.44	0
bin	0.46	0
bin	0.48	0
bin	0.5	0
scalar SensorNetwork.host[7].wlan[0].queue dropPk:count 0
attr interpolationmode none
attr source dropPkByQueue
attr title "dropped packets, count"
scalar SensorNetwork.host[7].wlan[0].queue dropPk:sum(packetBytes) 0
attr interpolationmode none
attr source dropPkByQueue
attr title "dropped packets, sum(packetBytes)"
scalar SensorNetwork.host[7].wlan[0].queue queueLength:max nan
attr interpolationmode sample-hold
attr title "queue length, max"
scalar SensorNetwork.host[7].wlan[0].queue queueLength:timeavg -nan
attr interpolationmode sample-hold
attr title "queue length, timeavg"
scalar SensorNetwork.host[7].wlan[0].queue rcvdPk:count 321
attr interpolationmode none
attr title "received packets, count"
scalar SensorNetwork.host[7].wlan[0].queue rcvdPk:sum(packetBytes) 8988
attr interpolationmode none
attr title "received packets, sum(packetBytes)"
scalar SensorNetwork.host[7].wlan[0].mac droppedPkNotForUs:count 0
attr interpolationmode none
attr source dropPkNotForUs
attr title "packets dropped/not for us, count"
scalar SensorNetwork.host[7].wlan[0].mac droppedPkNotForUs:sum(packetBytes) 0
attr interpolationmode none
attr source dropPkNotForUs
attr title "packets dropped/not for us, sum(packetBytes)"
scalar SensorNetwork.host[7].wlan[0].mac rcvdPkFromLL:count 128
attr interpolationmode none
attr source packetReceivedFromLower
attr title "packets received from lower layer, count"
scalar SensorNetwork.host[7].wlan[0].mac rcvdPkFromLL:sum(packetBytes) 3584
attr interpolationmode none
attr source packetReceivedFromLower
attr title "packets received from lower layer, sum(packetBytes)"
scalar SensorNetwork.host[7].wlan[0].mac sentDownPk:count 321
attr interpolationmode none
attr source packetSentToLower
attr title "packets sent to lower layer, count"
scalar SensorNetwork.host[7].wlan[0].mac sentDownPk:sum(packetBytes) 8988
attr interpolationmode none
attr source packetSentToLower
attr title "packets sent to lower layer, sum(packetBytes)"
scalar SensorNetwork.host[7].wlan[0].mac rcvdPkFromHL:count 321
attr interpolationmode none
attr source packetReceivedFromUpper
attr title "packets received from higher layer, count"
scalar SensorNetwork.host[7].wlan[0].mac rcvdPkFromHL:sum(packetBytes) 8988
attr interpolationmode none
attr source packetReceivedFromUpper
attr title "packets received from higher layer, sum(packetBytes)"
scalar SensorNetwork.host[7].wlan[0].mac passedUpPk:count 128
attr interpolationmode none
attr source packetSentToUpper
attr title "packets passed to higher layer, count"
scalar SensorNetwork.host[7].wlan[0].mac passedUpPk:sum(packetBytes) 3584
attr interpolationmode none
attr source packetSentToUpper
attr title "packets passed to higher layer, sum(packetBytes)"
scalar SensorNetwork.host[7].wlan[0].radio transmissionState:count 1284
attr interpolationmode sample-hold
attr source transmissionStateChanged
attr title "Radio transmission state, count"
scalar SensorNetwork.host[7].wlan[0].radio receptionState:count 899
attr interpolationmode sample-hold
attr source receptionStateChanged
attr title "Radio reception state, count"
scalar SensorNetwork.host[7].wlan[0].radio radioMode:count 643
attr interpolationmode sample-hold
attr source radioModeChanged
attr title "Radio mode, count"
statistic SensorNetwork.host[7].wlan[0].radio symbolErrorRate:histogram
field count 128
field mean 0
field stddev 0
field min 0
field max 0
field sum 0
field sqrsum 0
attr source symbolErrorRate
attr title "Symbol error rate, histogram"
bin	-inf	0
bin	-0.5	0
bin	-0.48	0
bin	-0.46	0
bin	-0.44	0
bin	-0.42	0
bin	-0.4	0
bin	-0.38	0
bin	-0.36	0
bin	-0.34	0
bin	-0.32	0
bin	-0.3	0
bin	-0.28	0
bin	-0.26	0
bin	-0.24	0
bin	-0.22	0
bin	-0.2	0
bin	-0.18	0
bin	-0.16	0
bin	-0.14	0
bin	-0.12	0
bin	-0.1	0
bin	-0.08	0
bin	-0.06	0
bin	-0.04	0
bin	-0.02	0
bin	0	128
bin	0.02	0
bin	0.04	0
bin	0.06	0
bin	0.08	0
bin	0.1	0
bin	0.12	0
bin	0.14	0
bin	0.16	0
bin	0.18	0
bin	0.2	0
bin	0.22	0
bin	0.24	0
bin	0.26	0
bin	0.28	0
bin	0.3	0
bin	0.32	0
bin	0.34	0
bin	0.36	0
bin	0.38	0
bin	0.4	0
bin	0.42	0
bin	0.44	0
bin	0.46	0
bin	0.48	0
bin	0.5	0
statistic SensorNetwork.host[7].wlan[0].radio bitErrorRate:histogram
field count 128
field mean 0
field stddev 0
field min 0
field max 0
field sum 0
field sqrsum 0
attr source bitErrorRate
attr title "Bit error rate, histogram"
bin	-inf	0
bin	-0.5	0
bin	-0.48	0
bin	-0.46	0
bin	-0.44	0
bin	-0.42	0
bin	-0.4	0
bin	-0.38	0
bin	-0.36	0
bin	-0.34	0
bin	-0.32	0
bin	-0.3	0
bin	-0.28	0
bin	-0.26	0
bin	-0.24	0
bin	-0.22	0
bin	-0.2	0
bin	-0.18	0
bin	-0.16	0
bin	-0.14	0
bin	-0.12	0
bin	-0.1	0
bin	-0.08	0
bin	-0.06	0
bin	-0.04	0
bin	-0.02	0
bin	0	128
bin	0.02	0
bin	0.04	0
bin	0.06	0
bin	0.08	0
bin	0.1	0
bin	0.12	0
bin	0.14	0
bin	0.16	0
bin	0.18	0
bin	0.2	0
bin	0.22	0
bin	0.24	0
bin	0.26	0
bin	0.28	0
bin	0.3	0
bin	0.32	0
bin	0.34	0
bin	0.36	0
bin	0.38	0
bin	0.4	0
bin	0.42	0
bin	0.44	0
bin	0.46	0
bin	0.48	0
bin	0.5	0
statistic SensorNetwork.host[7].wlan[0].radio packetErrorRate:histogram
field count 128
field mean 0
field stddev 0
field min 0
field max 0
field sum 0
field sqrsum 0
attr source packetErrorRate
attr title "Packet error rate, histogram"
bin	-inf	0
bin	-0.5	0
bin	-0.48	0
bin	-0.46	0
bin	-0.44	0
bin	-0.42	0
bin	-0.4	0
bin	-0.38	0
bin	-0.36	0
bin	-0.34	0
bin	-0.32	0
bin	-0.3	0
bin	-0.28	0
bin	-0.26	0
bin	-0.24	0
bin	-0.22	0
bin	-0.2	0
bin	-0.18	0
bin	-0.16	0
bin	-0.14	0
bin	-0.12	0
bin	-0.1	0
bin	-0.08	0
bin	-0.06	0
bin	-0.04	0
bin	-0.02	0
bin	0	128
bin	0.02	0
bin	0.04	0
bin	0.06	0
bin	0.08	0
bin	0.1	0
bin	0.12	0
bin	0.14	0
bin	0.16	0
bin	0.18	0
bin	0.2	0
bin	0.22	0
bin	0.24	0
bin	0.26	0
bin	0.28	0
bin	0.3	0
bin	0.32	0
bin	0.34	0
bin	0.36	0
bin	0.38	0
bin	0.4	0
bin	0.42	0
bin	0.44	0
bin	0.46	0
bin	0.48	0
bin	0.5	0
statistic SensorNetwork.host[7].wlan[0].radio minSNIR:histogram
field count 0
field mean -nan
field stddev nan
field min nan
field max nan
field sum 0
field sqrsum 0
attr source minSNIR
attr title "Min SNIR, histogram"
bin	-inf	0
bin	0	0
bin	1	0
scalar SensorNetwork.host[8].networkLayer.arp failedARPResolution:count 0
attr title "ARP failed resolutions, count"
scalar SensorNetwork.host[8].networkLayer.arp completedARPResolution:count 0
attr title "ARP completed resolutions, count"
scalar SensorNetwork.host[8].networkLayer.arp initiatedARPResolution:count 0
attr title "ARP initiated resolutions, count"
scalar SensorNetwork.host[8].networkLayer.arp sentReply:count 0
attr title "ARP replies sent, count"
scalar SensorNetwork.host[8].networkLayer.arp sentReq:count 0
attr title "ARP request sent, count"
scalar SensorNetwork.host[8].lo0.lo droppedPkBitError:count 0
attr interpolationmode none
attr source dropPkBitError
attr title "packets dropped/bit error, count"
scalar SensorNetwork.host[8].lo0.lo droppedPkBitError:sum(packetBytes) 0
attr interpolationmode none
attr source dropPkBitError
attr title "packets dropped/bit error, sum(packetBytes)"
scalar SensorNetwork.host[8].lo0.lo rcvdPkFromHL:count 0
attr interpolationmode none
attr source packetReceivedFromUpper
attr title "packets received from higher layer, count"
scalar SensorNetwork.host[8].lo0.lo rcvdPkFromHL:sum(packetBytes) 0
attr interpolationmode none
attr source packetReceivedFromUpper
attr title "packets received from higher layer, sum(packetBytes)"
scalar SensorNetwork.host[8].lo0.lo passedUpPk:count 0
attr interpolationmode none
attr source packetSentToUpper
attr title "packets passed to higher layer, count"
scalar SensorNetwork.host[8].lo0.lo passedUpPk:sum(packetBytes) 0
attr interpolationmode none
attr source packetSentToUpper
attr title "packets passed to higher layer, sum(packetBytes)"
statistic SensorNetwork.host[8].wlan[0].queue queueingTime:histogram
field count 225
field mean 0
field stddev 0
field min 0
field max 0
field sum 0
field sqrsum 0
attr interpolationmode none
attr title "queueing time, histogram"
bin	-inf	0
bin	-0.5	0
bin	-0.48	0
bin	-0.46	0
bin	-0.44	0
bin	-0.42	0
bin	-0.4	0
bin	-0.38	0
bin	-0.36	0
bin	-0.34	0
bin	-0.32	0
bin	-0.3	0
bin	-0.28	0
bin	-0.26	0
bin	-0.24	0
bin	-0.22	0
bin	-0.2	0
bin	-0.18	0
bin	-0.16	0
bin	-0.14	0
bin	-0.12	0
bin	-0.1	0
bin	-0.08	0
bin	-0.06	0
bin	-0.04	0
bin	-0.02	0
bin	0	225
bin	0.02	0
bin	0.04	0
bin	0.06	0
bin	0.08	0
bin	0.1	0
bin	0.12	0
bin	0.14	0
bin	0.16	0
bin	0.18	0
bin	0.2	0
bin	0.22	0
bin	0.24	0
bin	0.26	0
bin	0.28	0
bin	0.3	0
bin	0.32	0
bin	0.34	0
bin	0.36	0
bin	0.38	0
bin	0.4	0
bin	0.42	0
bin	0.44	0
bin	0.46	0
bin	0.48	0
bin	0.5	0
scalar SensorNetwork.host[8].wlan[0].queue dropPk:count 0
attr interpolationmode none
attr source dropPkByQueue
attr title "dropped packets, count"
scalar SensorNetwork.host[8].wlan[0].queue dropPk:sum(packetBytes) 0
attr interpolationmode none
attr source dropPkByQueue
attr title "dropped packets, sum(packetBytes)"
scalar SensorNetwork.host[8].wlan[0].queue queueLength:max nan
attr interpolationmode sample-hold
attr title "queue length, max"
scalar SensorNetwork.host[8].wlan[0].queue queueLength:timeavg -nan
attr interpolationmode sample-hold
attr title "queue length, timeavg"
scalar SensorNetwork.host[8].wlan[0].queue rcvdPk:count 225
attr interpolationmode none
attr title "received packets, count"
scalar SensorNetwork.host[8].wlan[0].queue rcvdPk:sum(packetBytes) 6300
attr interpolationmode none
attr title "received packets, sum(packetBytes)"
scalar SensorNetwork.host[8].wlan[0].mac droppedPkNotForUs:count 0
attr interpolationmode none
attr source dropPkNotForUs
attr title "packets dropped/not for us, count"
scalar SensorNetwork.host[8].wlan[0].mac droppedPkNotForUs:sum(packetBytes) 0
attr interpolationmode none
attr source dropPkNotForUs
attr title "packets dropped/not for us, sum(packetBytes)"
scalar SensorNetwork.host[8].wlan[0].mac rcvdPkFromLL:count 204
attr interpolationmode none
attr source packetReceivedFromLower
attr title "packets received from lower layer, count"
scalar SensorNetwork.host[8].wlan[0].mac rcvdPkFromLL:sum(packetBytes) 5712
attr interpolationmode none
attr source packetReceivedFromLower
attr title "packets received from lower layer, sum(packetBytes)"
scalar SensorNetwork.host[8].wlan[0].mac sentDownPk:count 225
attr interpolationmode none
attr source packetSentToLower
attr title "packets sent to lower layer, count"
scalar SensorNetwork.host[8].wlan[0].mac sentDownPk:sum(packetBytes) 6300
attr interpolationmode none
attr source packetSentToLower
attr title "packets sent to lower layer, sum(packetBytes)"
scalar SensorNetwork.host[8].wlan[0].mac rcvdPkFromHL:count 225
attr interpolationmode none
attr source packetReceivedFromUpper
attr title "packets received from higher layer, count"
scalar SensorNetwork.host[8].wlan[0].mac rcvdPkFromHL:sum(packetBytes) 6300
attr interpolationmode none
attr source packetReceivedFromUpper
attr title "packets received from higher layer, sum(packetBytes)"
scalar SensorNetwork.host[8].wlan[0].mac passedUpPk:count 204
attr interpolationmode none
attr source packetSentToUpper
attr title "packets passed to higher layer, count"
scalar SensorNetwork.host[8].wlan[0].mac passedUpPk:sum(packetBytes) 5712
attr interpolationmode none
attr source packetSentToUpper
attr title "packets passed to higher layer, sum(packetBytes)"
scalar SensorNetwork.host[8].wlan[0].radio transmissionState:count 900
attr interpolationmode sample-hold
attr source transmissionStateChanged
attr title "Radio transmission state, count"
scalar SensorNetwork.host[8].wlan[0].radio receptionState:count 858
attr interpolationmode sample-hold
attr source receptionStateChanged
attr title "Radio reception state, count"
scalar SensorNetwork.host[8].wlan[0].radio radioMode:count 450
attr interpolationmode sample-hold
attr source radioModeChanged
attr title "Radio mode, count"
statistic SensorNetwork.host[8].wlan[0].radio symbolErrorRate:histogram
field count 204
field mean 0
field stddev 0
field min 0
field max 0
field sum 0
field sqrsum 0
attr source symbolErrorRate
attr title "Symbol error rate, histogram"
bin	-inf	0
bin	-0.5	0
bin	-0.48	0
bin	-0.46	0
bin	-0.44	0
bin	-0.42	0
bin	-0.4	0
bin	-0.38	0
bin	-0.36	0
bin	-0.34	0
bin	-0.32	0
bin	-0.3	0
bin	-0.28	0
bin	-0.26	0
bin	-0.24	0
bin	-0.22	0
bin	-0.2	0
bin	-0.18	0
bin	-0.16	0
bin	-0.14	0
bin	-0.12	0
bin	-0.1	0
bin	-0.08	0
bin	-0.06	0
bin	-0.04	0
bin	-0.02	0
bin	0	204
bin	0.02	0
bin	0.04	0
bin	0.06	0
bin	0.08	0
bin	0.1	0
bin	0.12	0
bin	0.14	0
bin	0.16	0
bin	0.18	0
bin	0.2	0
bin	0.22	0
bin	0.24	0
bin	0.26	0
bin	0.28	0
bin	0.3	0
bin	0.32	0
bin	0.34	0
bin	0.36	0
bin	0.38	0
bin	0.4	0
bin	0.42	0
bin	0.44	0
bin	0.46	0
bin	0.48	0
bin	0.5	0
statistic SensorNetwork.host[8].wlan[0].radio bitErrorRate:histogram
field count 204
field mean 0
field stddev 0
field min 0
field max 0
field sum 0
field sqrsum 0
attr source bitErrorRate
attr title "Bit error rate, histogram"
bin	-inf	0
bin	-0.5	0
bin	-0.48	0
bin	-0.46	0
bin	-0.44	0
bin	-0.42	0
bin	-0.4	0
bin	-0.38	0
bin	-0.36	0
bin	-0.34	0
bin	-0.32	0
bin	-0.3	0
bin	-0.28	0
bin	-0.26	0
bin	-0.24	0
bin	-0.22	0
bin	-0.2	0
bin	-0.18	0
bin	-0.16	0
bin	-0.14	0
bin	-0.12	0
bin	-0.1	0
bin	-0.08	0
bin	-0.06	0
bin	-0.04	0
bin	-0.02	0
bin	0	204
bin	0.02	0
bin	0.04	0
bin	0.06	0
bin	0.08	0
bin	0.1	0
bin	0.12	0
bin	0.14	0
bin	0.16	0
bin	0.18	0
bin	0.2	0
bin	0.22	0
bin	0.24	0
bin	0.26	0
bin	0.28	0
bin	0.3	0
bin	0.32	0
bin	0.34	0
bin	0.36	0
bin	0.38	0
bin	0.4	0
bin	0.42	0
bin	0.44	0
bin	0.46	0
bin	0.48	0
bin	0.5	0
statistic SensorNetwork.host[8].wlan[0].radio packetErrorRate:histogram
field count 204
field mean 0
field stddev 0
field min 0
field max 0
field sum 0
field sqrsum 0
attr source packetErrorRate
attr title "Packet error rate, histogram"
bin	-inf	0
bin	-0.5	0
bin	-0.48	0
bin	-0.46	0
bin	-0.44	0
bin	-0.42	0
bin	-0.4	0
bin	-0.38	0
bin	-0.36	0
bin	-0.34	0
bin	-0.32	0
bin	-0.3	0
bin	-0.28	0
bin	-0.26	0
bin	-0.24	0
bin	-0.22	0
bin	-0.2	0
bin	-0.18	0
bin	-0.16	0
bin	-0.14	0
bin	-0.12	0
bin	-0.1	0
bin	-0.08	0
bin	-0.06	0
bin	-0.04	0
bin	-0.02	0
bin	0	204
bin	0.02	0
bin	0.04	0
bin	0.06	0
bin	0.08	0
bin	0.1	0
bin	0.12	0
bin	0.14	0
bin	0.16	0
bin	0.18	0
bin	0.2	0
bin	0.22	0
bin	0.24	0
bin	0.26	0
bin	0.28	0
bin	0.3	0
bin	0.32	0
bin	0.34	0
bin	0.36	0
bin	0.38	0
bin	0.4	0
bin	0.42	0
bin	0.44	0
bin	0.46	0
bin	0.48	0
bin	0.5	0
statistic SensorNetwork.host[8].wlan[0].radio minSNIR:histogram
field count 0
field mean -nan
field stddev nan
field min nan
field max nan
field sum 0
field sqrsum 0
attr source minSNIR
attr title "Min SNIR, histogram"
bin	-inf	0
bin	0	0
bin	1	0
[...]
attr source transmissionStateChanged
attr title "Radio transmission state, count"
scalar SensorNetwork.host[97].wlan[0].radio receptionState:count 355
attr interpolationmode sample-hold
attr source receptionStateChanged
attr title "Radio reception state, count"
scalar SensorNetwork.host[97].wlan[0].radio radioMode:count 193
attr interpolationmode sample-hold
attr source radioModeChanged
attr title "Radio mode, count"
statistic SensorNetwork.host[97].wlan[0].radio symbolErrorRate:histogram
field count 81
field mean 0
field stddev 0
field min 0
field max 0
field sum 0
field sqrsum 0
attr source symbolErrorRate
attr title "Symbol error rate, histogram"
bin	-inf	0
bin	-0.5	0
bin	-0.48	0
bin	-0.46	0
bin	-0.44	0
bin	-0.42	0
bin	-0.4	0
bin	-0.38	0
bin	-0.36	0
bin	-0.34	0
bin	-0.32	0
bin	-0.3	0
bin	-0.28	0
bin	-0.26	0
bin	-0.24	0
bin	-0.22	0
bin	-0.2	0
bin	-0.18	0
bin	-0.16	0
bin	-0.14	0
bin	-0.12	0
bin	-0.1	0
bin	-0.08	0
bin	-0.06	0
bin	-0.04	0
bin	-0.02	0
bin	0	81
bin	0.02	0
bin	0.04	0
bin	0.06	0
bin	0.08	0
bin	0.1	0
bin	0.12	0
bin	0.14	0
bin	0.16	0
bin	0.18	0
bin	0.2	0
bin	0.22	0
bin	0.24	0
bin	0.26	0
bin	0.28	0
bin	0.3	0
bin	0.32	0
bin	0.34	0
bin	0.36	0
bin	0.38	0
bin	0.4	0
bin	0.42	0
bin	0.44	0
bin	0.46	0
bin	0.48	0
bin	0.5	0
statistic SensorNetwork.host[97].wlan[0].radio bitErrorRate:histogram
field count 81
field mean 0
field stddev 0
field min 0
field max 0
field sum 0
field sqrsum 0
attr source bitErrorRate
attr title "Bit error rate, histogram"
bin	-inf	0
bin	-0.5	0
bin	-0.48	0
bin	-0.46	0
bin	-0.44	0
bin	-0.42	0
bin	-0.4	0
bin	-0.38	0
bin	-0.36	0
bin	-0.34	0
bin	-0.32	0
bin	-0.3	0
bin	-0.28	0
bin	-0.26	0
bin	-0.24	0
bin	-0.22	0
bin	-0.2	0
bin	-0.18	0
bin	-0.16	0
bin	-0.14	0
bin	-0.12	0
bin	-0.1	0
bin	-0.08	0
bin	-0.06	0
bin	-0.04	0
bin	-0.02	0
bin	0	81
bin	0.02	0
bin	0.04	0
bin	0.06	0
bin	0.08	0
bin	0.1	0
bin	0.12	0
bin	0.14	0
bin	0.16	0
bin	0.18	0
bin	0.2	0
bin	0.22	0
bin	0.24	0
bin	0.26	0
bin	0.28	0
bin	0.3	0
bin	0.32	0
bin	0.34	0
bin	0.36	0
bin	0.38	0
bin	0.4	0
bin	0.42	0
bin	0.44	0
bin	0.46	0
bin	0.48	0
bin	0.5	0
statistic SensorNetwork.host[97].wlan[0].radio packetErrorRate:histogram
field count 81
field mean 0
field stddev 0
field min 0
field max 0
field sum 0
field sqrsum 0
attr source packetErrorRate
attr title "Packet error rate, histogram"
bin	-inf	0
bin	-0.5	0
bin	-0.48	0
bin	-0.46	0
bin	-0.44	0
bin	-0.42	0
bin	-0.4	0
bin	-0.38	0
bin	-0.36	0
bin	-0.34	0
bin	-0.32	0
bin	-0.3	0
bin	-0.28	0
bin	-0.26	0
bin	-0.24	0
bin	-0.22	0
bin	-0.2	0
bin	-0.18	0
bin	-0.16	0
bin	-0.14	0
bin	-0.12	0
bin	-0.1	0
bin	-0.08	0
bin	-0.06	0
bin	-0.04	0
bin	-0.02	0
bin	0	81
bin	0.02	0
bin	0.04	0
bin	0.06	0
bin	0.08	0
bin	0.1	0
bin	0.12	0
bin	0.14	0
bin	0.16	0
bin	0.18	0
bin	0.2	0
bin	0.22	0
bin	0.24	0
bin	0.26	0
bin	0.28	0
bin	0.3	0
bin	0.32	0
bin	0.34	0
bin	0.36	0
bin	0.38	0
bin	0.4	0
bin	0.42	0
bin	0.44	0
bin	0.46	0
bin	0.48	0
bin	0.5	0
statistic SensorNetwork.host[97].wlan[0].radio minSNIR:histogram
field count 0
field mean -nan
field stddev nan
field min nan
field max nan
field sum 0
field sqrsum 0
attr source minSNIR
attr title "Min SNIR, histogram"
bin	-inf	0
bin	0	0
bin	1	0
scalar SensorNetwork.host[98].networkLayer.arp failedARPResolution:count 0
attr title "ARP failed resolutions, count"
scalar SensorNetwork.host[98].networkLayer.arp completedARPResolution:count 0
attr title "ARP completed resolutions, count"
scalar SensorNetwork.host[98].networkLayer.arp initiatedARPResolution:count 0
attr title "ARP initiated resolutions, count"
scalar SensorNetwork.host[98].networkLayer.arp sentReply:count 0
attr title "ARP replies sent, count"
scalar SensorNetwork.host[98].networkLayer.arp sentReq:count 0
attr title "ARP request sent, count"
scalar SensorNetwork.host[98].lo0.lo droppedPkBitError:count 0
attr interpolationmode none
attr source dropPkBitError
attr title "packets dropped/bit error, count"
scalar SensorNetwork.host[98].lo0.lo droppedPkBitError:sum(packetBytes) 0
attr interpolationmode none
attr source dropPkBitError
attr title "packets dropped/bit error, sum(packetBytes)"
scalar SensorNetwork.host[98].lo0.lo rcvdPkFromHL:count 0
attr interpolationmode none
attr source packetReceivedFromUpper
attr title "packets received from higher layer, count"
scalar SensorNetwork.host[98].lo0.lo rcvdPkFromHL:sum(packetBytes) 0
attr interpolationmode none
attr source packetReceivedFromUpper
attr title "packets received from higher layer, sum(packetBytes)"
scalar SensorNetwork.host[98].lo0.lo passedUpPk:count 0
attr interpolationmode none
attr source packetSentToUpper
attr title "packets passed to higher layer, count"
scalar SensorNetwork.host[98].lo0.lo passedUpPk:sum(packetBytes) 0
attr interpolationmode none
attr source packetSentToUpper
attr title "packets passed to higher layer, sum(packetBytes)"
statistic SensorNetwork.host[98].wlan[0].queue queueingTime:histogram
field count 264
field mean 0
field stddev 0
field min 0
field max 0
field sum 0
field sqrsum 0
attr interpolationmode none
attr title "queueing time, histogram"
bin	-inf	0
bin	-0.5	0
bin	-0.48	0
bin	-0.46	0
bin	-0.44	0
bin	-0.42	0
bin	-0.4	0
bin	-0.38	0
bin	-0.36	0
bin	-0.34	0
bin	-0.32	0
bin	-0.3	0
bin	-0.28	0
bin	-0.26	0
bin	-0.24	0
bin	-0.22	0
bin	-0.2	0
bin	-0.18	0
bin	-0.16	0
bin	-0.14	0
bin	-0.12	0
bin	-0.1	0
bin	-0.08	0
bin	-0.06	0
bin	-0.04	0
bin	-0.02	0
bin	0	264
bin	0.02	0
bin	0.04	0
bin	0.06	0
bin	0.08	0
bin	0.1	0
bin	0.12	0
bin	0.14	0
bin	0.16	0
bin	0.18	0
bin	0.2	0
bin	0.22	0
bin	0.24	0
bin	0.26	0
bin	0.28	0
bin	0.3	0
bin	0.32	0
bin	0.34	0
bin	0.36	0
bin	0.38	0
bin	0.4	0
bin	0.42	0
bin	0.44	0
bin	0.46	0
bin	0.48	0
bin	0.5	0
scalar SensorNetwork.host[98].wlan[0].queue dropPk:count 0
attr interpolationmode none
attr source dropPkByQueue
attr title "dropped packets, count"
scalar SensorNetwork.host[98].wlan[0].queue dropPk:sum(packetBytes) 0
attr interpolationmode none
attr source dropPkByQueue
attr title "dropped packets, sum(packetBytes)"
scalar SensorNetwork.host[98].wlan[0].queue queueLength:max nan
attr interpolationmode sample-hold
attr title "queue length, max"
scalar SensorNetwork.host[98].wlan[0].queue queueLength:timeavg -nan
attr interpolationmode sample-hold
attr title "queue length, timeavg"
scalar SensorNetwork.host[98].wlan[0].queue rcvdPk:count 264
attr interpolationmode none
attr title "received packets, count"
scalar SensorNetwork.host[98].wlan[0].queue rcvdPk:sum(packetBytes) 7392
attr interpolationmode none
attr title "received packets, sum(packetBytes)"
scalar SensorNetwork.host[98].wlan[0].mac droppedPkNotForUs:count 0
attr interpolationmode none
attr source dropPkNotForUs
attr title "packets dropped/not for us, count"
scalar SensorNetwork.host[98].wlan[0].mac droppedPkNotForUs:sum(packetBytes) 0
attr interpolationmode none
attr source dropPkNotForUs
attr title "packets dropped/not for us, sum(packetBytes)"
scalar SensorNetwork.host[98].wlan[0].mac rcvdPkFromLL:count 161
attr interpolationmode none
attr source packetReceivedFromLower
attr title "packets received from lower layer, count"
scalar SensorNetwork.host[98].wlan[0].mac rcvdPkFromLL:sum(packetBytes) 4508
attr interpolationmode none
attr source packetReceivedFromLower
attr title "packets received from lower layer, sum(packetBytes)"
scalar SensorNetwork.host[98].wlan[0].mac sentDownPk:count 264
attr interpolationmode none
attr source packetSentToLower
attr title "packets sent to lower layer, count"
scalar SensorNetwork.host[98].wlan[0].mac sentDownPk:sum(packetBytes) 7392
attr interpolationmode none
attr source packetSentToLower
attr title "packets sent to lower layer, sum(packetBytes)"
scalar SensorNetwork.host[98].wlan[0].mac rcvdPkFromHL:count 264
attr interpolationmode none
attr source packetReceivedFromUpper
attr title "packets received from higher layer, count"
scalar SensorNetwork.host[98].wlan[0].mac rcvdPkFromHL:sum(packetBytes) 7392
attr interpolationmode none
attr source packetReceivedFromUpper
attr title "packets received from higher layer, sum(packetBytes)"
scalar SensorNetwork.host[98].wlan[0].mac passedUpPk:count 161
attr interpolationmode none
attr source packetSentToUpper
attr title "packets passed to higher layer, count"
scalar SensorNetwork.host[98].wlan[0].mac passedUpPk:sum(packetBytes) 4508
attr interpolationmode none
attr source packetSentToUpper
attr title "packets passed to higher layer, sum(packetBytes)"
scalar SensorNetwork.host[98].wlan[0].radio transmissionState:count 1056
attr interpolationmode sample-hold
attr source transmissionStateChanged
attr title "Radio transmission state, count"
scalar SensorNetwork.host[98].wlan[0].radio receptionState:count 851
attr interpolationmode sample-hold
attr source receptionStateChanged
attr title "Radio reception state, count"
scalar SensorNetwork.host[98].wlan[0].radio radioMode:count 529
attr interpolationmode sample-hold
attr source radioModeChanged
attr title "Radio mode, count"
statistic SensorNetwork.host[98].wlan[0].radio symbolErrorRate:histogram
field count 161
field mean 0
field stddev 0
field min 0
field max 0
field sum 0
field sqrsum 0
attr source symbolErrorRate
attr title "Symbol error rate, histogram"
bin	-inf	0
bin	-0.5	0
bin	-0.48	0
bin	-0.46	0
bin	-0.44	0
bin	-0.42	0
bin	-0.4	0
bin	-0.38	0
bin	-0.36	0
bin	-0.34	0
bin	-0.32	0
bin	-0.3	0
bin	-0.28	0
bin	-0.26	0
bin	-0.24	0
bin	-0.22	0
bin	-0.2	0
bin	-0.18	0
bin	-0.16	0
bin	-0.14	0
bin	-0.12	0
bin	-0.1	0
bin	-0.08	0
bin	-0.06	0
bin	-0.04	0
bin	-0.02	0
bin	0	161
bin	0.02	0
bin	0.04	0
bin	0.06	0
bin	0.08	0
bin	0.1	0
bin	0.12	0
bin	0.14	0
bin	0.16	0
bin	0.18	0
bin	0.2	0
bin	0.22	0
bin	0.24	0
bin	0.26	0
bin	0.28	0
bin	0.3	0
bin	0.32	0
bin	0.34	0
bin	0.36	0
bin	0.38	0
bin	0.4	0
bin	0.42	0
bin	0.44	0
bin	0.46	0
bin	0.48	0
bin	0.5	0
statistic SensorNetwork.host[98].wlan[0].radio bitErrorRate:histogram
field count 161
field mean 0
field stddev 0
field min 0
field max 0
field sum 0
field sqrsum 0
attr source bitErrorRate
attr title "Bit error rate, histogram"
bin	-inf	0
bin	-0.5	0
bin	-0.48	0
bin	-0.46	0
bin	-0.44	0
bin	-0.42	0
bin	-0.4	0
bin	-0.38	0
bin	-0.36	0
bin	-0.34	0
bin	-0.32	0
bin	-0.3	0
bin	-0.28	0
bin	-0.26	0
bin	-0.24	0
bin	-0.22	0
bin	-0.2	0
bin	-0.18	0
bin	-0.16	0
bin	-0.14	0
bin	-0.12	0
bin	-0.1	0
bin	-0.08	0
bin	-0.06	0
bin	-0.04	0
bin	-0.02	0
bin	0	161
bin	0.02	0
bin	0.04	0
bin	0.06	0
bin	0.08	0
bin	0.1	0
bin	0.12	0
bin	0.14	0
bin	0.16	0
bin	0.18	0
bin	0.2	0
bin	0.22	0
bin	0.24	0
bin	0.26	0
bin	0.28	0
bin	0.3	0
bin	0.32	0
bin	0.34	0
bin	0.36	0
bin	0.38	0
bin	0.4	0
bin	0.42	0
bin	0.44	0
bin	0.46	0
bin	0.48	0
bin	0.5	0
statistic SensorNetwork.host[98].wlan[0].radio packetErrorRate:histogram
field count 161
field mean 0
field stddev 0
field min 0
field max 0
field sum 0
field sqrsum 0
attr source packetErrorRate
attr title "Packet error rate, histogram"
bin	-inf	0
bin	-0.5	0
bin	-0.48	0
bin	-0.46	0
bin	-0.44	0
bin	-0.42	0
bin	-0.4	0
bin	-0.38	0
bin	-0.36	0
bin	-0.34	0
bin	-0.32	0
bin	-0.3	0
bin	-0.28	0
bin	-0.26	0
bin	-0.24	0
bin	-0.22	0
bin	-0.2	0
bin	-0.18	0
bin	-0.16	0
bin	-0.14	0
bin	-0.12	0
bin	-0.1	0
bin	-0.08	0
bin	-0.06	0
bin	-0.04	0
bin	-0.02	0
bin	0	161
bin	0.02	0
bin	0.04	0
bin	0.06	0
bin	0.08	0
bin	0.1	0
bin	0.12	0
bin	0.14	0
bin	0.16	0
bin	0.18	0
bin	0.2	0
bin	0.22	0
bin	0.24	0
bin	0.26	0
bin	0.28	0
bin	0.3	0
bin	0.32	0
bin	0.34	0
bin	0.36	0
bin	0.38	0
bin	0.4	0
bin	0.42	0
bin	0.44	0
bin	0.46	0
bin	0.48	0
bin	0.5	0
statistic SensorNetwork.host[98].wlan[0].radio minSNIR:histogram
field count 0
field mean -nan
field stddev nan
field min nan
field max nan
field sum 0
field sqrsum 0
attr source minSNIR
attr title "Min SNIR, histogram"
bin	-inf	0
bin	0	0
bin	1	0
scalar SensorNetwork.host[99].networkLayer.arp failedARPResolution:count 0
attr title "ARP failed resolutions, count"
scalar SensorNetwork.host[99].networkLayer.arp completedARPResolution:count 0
attr title "ARP completed resolutions, count"
scalar SensorNetwork.host[99].networkLayer.arp initiatedARPResolution:count 0
attr title "ARP initiated resolutions, count"
scalar SensorNetwork.host[99].networkLayer.arp sentReply:count 0
attr title "ARP replies sent, count"
scalar SensorNetwork.host[99].networkLayer.arp sentReq:count 0
attr title "ARP request sent, count"
scalar SensorNetwork.host[99].lo0.lo droppedPkBitError:count 0
attr interpolationmode none
attr source dropPkBitError
attr title "packets dropped/bit error, count"
scalar SensorNetwork.host[99].lo0.lo droppedPkBitError:sum(packetBytes) 0
attr interpolationmode none
attr source dropPkBitError
attr title "packets dropped/bit error, sum(packetBytes)"
scalar SensorNetwork.host[99].lo0.lo rcvdPkFromHL:count 0
attr interpolationmode none
attr source packetReceivedFromUpper
attr title "packets received from higher layer, count"
scalar SensorNetwork.host[99].lo0.lo rcvdPkFromHL:sum(packetBytes) 0
attr interpolationmode none
attr source packetReceivedFromUpper
attr title "packets received from higher layer, sum(packetBytes)"
scalar SensorNetwork.host[99].lo0.lo passedUpPk:count 0
attr interpolationmode none
attr source packetSentToUpper
attr title "packets passed to higher layer, count"
scalar SensorNetwork.host[99].lo0.lo passedUpPk:sum(packetBytes) 0
attr interpolationmode none
attr source packetSentToUpper
attr title "packets passed to higher layer, sum(packetBytes)"
statistic SensorNetwork.host[99].wlan[0].queue queueingTime:histogram
field count 198
field mean 0
field stddev 0
field min 0
field max 0
field sum 0
field sqrsum 0
attr interpolationmode none
attr title "queueing time, histogram"
bin	-inf	0
bin	-0.5	0
bin	-0.48	0
bin	-0.46	0
bin	-0.44	0
bin	-0.42	0
bin	-0.4	0
bin	-0.38	0
bin	-0.36	0
bin	-0.34	0
bin	-0.32	0
bin	-0.3	0
bin	-0.28	0
bin	-0.26	0
bin	-0.24	0
bin	-0.22	0
bin	-0.2	0
bin	-0.18	0
bin	-0.16	0
bin	-0.14	0
bin	-0.12	0
bin	-0.1	0
bin	-0.08	0
bin	-0.06	0
bin	-0.04	0
bin	-0.02	0
bin	0	198
bin	0.02	0
bin	0.04	0
bin	0.06	0
bin	0.08	0
bin	0.1	0
bin	0.12	0
bin	0.14	0
bin	0.16	0
bin	0.18	0
bin	0.2	0
bin	0.22	0
bin	0.24	0
bin	0.26	0
bin	0.28	0
bin	0.3	0
bin	0.32	0
bin	0.34	0
bin	0.36	0
bin	0.38	0
bin	0.4	0
bin	0.42	0
bin	0.44	0
bin	0.46	0
bin	0.48	0
bin	0.5	0
scalar SensorNetwork.host[99].wlan[0].queue dropPk:count 0
attr interpolationmode none
attr source dropPkByQueue
attr title "dropped packets, count"
scalar SensorNetwork.host[99].wlan[0].queue dropPk:sum(packetBytes) 0
attr interpolationmode none
attr source dropPkByQueue
attr title "dropped packets, sum(packetBytes)"
scalar SensorNetwork.host[99].wlan[0].queue queueLength:max nan
attr interpolationmode sample-hold
attr title "queue length, max"
scalar SensorNetwork.host[99].wlan[0].queue queueLength:timeavg -nan
attr interpolationmode sample-hold
attr title "queue length, timeavg"
scalar SensorNetwork.host[99].wlan[0].queue rcvdPk:count 198
attr interpolationmode none
attr title "received packets, count"
scalar SensorNetwork.host[99].wlan[0].queue rcvdPk:sum(packetBytes) 5544
attr interpolationmode none
attr title "received packets, sum(packetBytes)"
scalar SensorNetwork.host[99].wlan[0].mac droppedPkNotForUs:count 0
attr interpolationmode none
attr source dropPkNotForUs
attr title "packets dropped/not for us, count"
scalar SensorNetwork.host[99].wlan[0].mac droppedPkNotForUs:sum(packetBytes) 0
attr interpolationmode none
attr source dropPkNotForUs
attr title "packets dropped/not for us, sum(packetBytes)"
scalar SensorNetwork.host[99].wlan[0].mac rcvdPkFromLL:count 127
attr interpolationmode none
attr source packetReceivedFromLower
attr title "packets received from lower layer, count"
scalar SensorNetwork.host[99].wlan[0].mac rcvdPkFromLL:sum(packetBytes) 3556
attr interpolationmode none
attr source packetReceivedFromLower
attr title "packets received from lower layer, sum(packetBytes)"
scalar SensorNetwork.host[99].wlan[0].mac sentDownPk:count 198
attr interpolationmode none
attr source packetSentToLower
attr title "packets sent to lower layer, count"
scalar SensorNetwork.host[99].wlan[0].mac sentDownPk:sum(packetBytes) 5544
attr interpolationmode none
attr source packetSentToLower
attr title "packets sent to lower layer, sum(packetBytes)"
scalar SensorNetwork.host[99].wlan[0].mac rcvdPkFromHL:count 198
attr interpolationmode none
attr source packetReceivedFromUpper
attr title "packets received from higher layer, count"
scalar SensorNetwork.host[99].wlan[0].mac rcvdPkFromHL:sum(packetBytes) 5544
attr interpolationmode none
attr source packetReceivedFromUpper
attr title "packets received from higher layer, sum(packetBytes)"
scalar SensorNetwork.host[99].wlan[0].mac passedUpPk:count 127
attr interpolationmode none
attr source packetSentToUpper
attr title "packets passed to higher layer, count"
scalar SensorNetwork.host[99].wlan[0].mac passedUpPk:sum(packetBytes) 3556
attr interpolationmode none
attr source packetSentToUpper
attr title "packets passed to higher layer, sum(packetBytes)"
scalar SensorNetwork.host[99].wlan[0].radio transmissionState:count 792
attr interpolationmode sample-hold
attr source transmissionStateChanged
attr title "Radio transmission state, count"
scalar SensorNetwork.host[99].wlan[0].radio receptionState:count 651
attr interpolationmode sample-hold
attr source receptionStateChanged
attr title "Radio reception state, count"
scalar SensorNetwork.host[99].wlan[0].radio radioMode:count 397
attr interpolationmode sample-hold
attr source radioModeChanged
attr title "Radio mode, count"
statistic SensorNetwork.host[99].wlan[0].radio symbolErrorRate:histogram
field count 127
field mean 0
field stddev 0
field min 0
field max 0
field sum 0
field sqrsum 0
attr source symbolErrorRate
attr title "Symbol error rate, histogram"
bin	-inf	0
bin	-0.5	0
bin	-0.48	0
bin	-0.46	0
bin	-0.44	0
bin	-0.42	0
bin	-0.4	0
bin	-0.38	0
bin	-0.36	0
bin	-0.34	0
bin	-0.32	0
bin	-0.3	0
bin	-0.28	0
bin	-0.26	0
bin	-0.24	0
bin	-0.22	0
bin	-0.2	0
bin	-0.18	0
bin	-0.16	0
bin	-0.14	0
bin	-0.12	0
bin	-0.1	0
bin	-0.08	0
bin	-0.06	0
bin	-0.04	0
bin	-0.02	0
bin	0	127
bin	0.02	0
bin	0.04	0
bin	0.06	0
bin	0.08	0
bin	0.1	0
bin	0.12	0
bin	0.14	0
bin	0.16	0
bin	0.18	0
bin	0.2	0
bin	0.22	0
bin	0.24	0
bin	0.26	0
bin	0.28	0
bin	0.3	0
bin	0.32	0
bin	0.34	0
bin	0.36	0
bin	0.38	0
bin	0.4	0
bin	0.42	0
bin	0.44	0
bin	0.46	0
bin	0.48	0
bin	0.5	0
statistic SensorNetwork.host[99].wlan[0].radio bitErrorRate:histogram
field count 127
field mean 0
field stddev 0
field min 0
field max 0
field sum 0
field sqrsum 0
attr source bitErrorRate
attr title "Bit error rate, histogram"
bin	-inf	0
bin	-0.5	0
bin	-0.48	0
bin	-0.46	0
bin	-0.44	0
bin	-0.42	0
bin	-0.4	0
bin	-0.38	0
bin	-0.36	0
bin	-0.34	0
bin	-0.32	0
bin	-0.3	0
bin	-0.28	0
bin	-0.26	0
bin	-0.24	0
bin	-0.22	0
bin	-0.2	0
bin	-0.18	0
bin	-0.16	0
bin	-0.14	0
bin	-0.12	0
bin	-0.1	0
bin	-0.08	0
bin	-0.06	0
bin	-0.04	0
bin	-0.02	0
bin	0	127
bin	0.02	0
bin	0.04	0
bin	0.06	0
bin	0.08	0
bin	0.1	0
bin	0.12	0
bin	0.14	0
bin	0.16	0
bin	0.18	0
bin	0.2	0
bin	0.22	0
bin	0.24	0
bin	0.26	0
bin	0.28	0
bin	0.3	0
bin	0.32	0
bin	0.34	0
bin	0.36	0
bin	0.38	0
bin	0.4	0
bin	0.42	0
bin	0.44	0
bin	0.46	0
bin	0.48	0
bin	0.5	0
statistic SensorNetwork.host[99].wlan[0].radio packetErrorRate:histogram
field count 127
field mean 0
field stddev 0
field min 0
field max 0
field sum 0
field sqrsum 0
attr source packetErrorRate
attr title "Packet error rate, histogram"
bin	-inf	0
bin	-0.5	0
bin	-0.48	0
bin	-0.46	0
bin	-0.44	0
bin	-0.42	0
bin	-0.4	0
bin	-0.38	0
bin	-0.36	0
bin	-0.34	0
bin	-0.32	0
bin	-0.3	0
bin	-0.28	0
bin	-0.26	0
bin	-0.24	0
bin	-0.22	0
bin	-0.2	0
bin	-0.18	0
bin	-0.16	0
bin	-0.14	0
bin	-0.12	0
bin	-0.1	0
bin	-0.08	0
bin	-0.06	0
bin	-0.04	0
bin	-0.02	0
bin	0	127
bin	0.02	0
bin	0.04	0
bin	0.06	0
bin	0.08	0
bin	0.1	0
bin	0.12	0
bin	0.14	0
bin	0.16	0
bin	0.18	0
bin	0.2	0
bin	0.22	0
bin	0.24	0
bin	0.26	0
bin	0.28	0
bin	0.3	0
bin	0.32	0
bin	0.34	0
bin	0.36	0
bin	0.38	0
bin	0.4	0
bin	0.42	0
bin	0.44	0
bin	0.46	0
bin	0.48	0
bin	0.5	0
statistic SensorNetwork.host[99].wlan[0].radio minSNIR:histogram
field count 0
field mean -nan
field stddev nan
field min nan
field max nan
field sum 0
field sqrsum 0
attr source minSNIR
attr title "Min SNIR, histogram"
bin	-inf	0
bin	0	0
bin	1	0

