file 9403612 1538150895                                         
version 2
run KHOPCA_Network_Random-0-20180928-16:07:42-5821
attr configname KHOPCA_Network_Random
attr datetime 20180928-16:07:42
attr experiment KHOPCA_Network_Random
attr inifile omnetpp.ini
attr iterationvars ""
attr iterationvarsf ""
attr measurement ""
attr network khopca_test.simulations.SensorNetwork
attr processid 5821
attr repetition 0
attr replication #0
attr resultdir results
attr runnumber 0
attr seedset 0
param *.numHosts 50
param *.host*.wlan[*].typename "\"IdealWirelessNic\""
param *.host*.wlan[*].mac.useAck false
param *.host*.wlan[*].mac.fullDuplex false
param *.host*.wlan[*].radio.transmitter.communicationRange 300m
param *.host*.wlan[*].radio.receiver.ignoreInterference true
param *.host*.**.bitrate 1Mbps
param *.visualizer.interfaceTableVisualizer.displayInterfaceTables false
param *.visualizer.interfaceTableVisualizer.interfaceFilter "\"wlan*\""
param *.visualizer.interfaceTableVisualizer.format "\"%N\\n%n\""
param *.visualizer.interfaceTableVisualizer.displacementHint "\"left\""
param *.visualizer.sceneVisualizer.descriptionFigure "\"title\""
param *.visualizer.linkBreakVisualizer.displayLinkBreaks true
param *.visualizer.packetDropVisualizer.displayPacketDrops true
param *.visualizer.packetDropVisualizer.packetFilter "\"UDPData*\""
param *.visualizer.mediumVisualizer.signalPropagationAnimationSpeed 0.000001
param *.visualizer.mediumVisualizer.signalTransmissionAnimationSpeed 0.0005
param *.visualizer.mediumVisualizer.displayTransmissions true
param *.visualizer.mediumVisualizer.displayReceptions true
param *.visualizer.mediumVisualizer.displaySignals false
param *.configurator.config "xml(\"<config><interface hosts='**' address='10.0.0.x' netmask='255.255.255.0'/><autoroute metric='errorRate'/></config>\")"
param *.configurator.optimizeRoutes false
param *.host*.routingTable.netmaskRoutes "\"\""
param *.configurator.addStaticRoutes false
param *.host*.wlan[0].radio.displayCommunicationRange false
param *.host*.wlan[0].radio.energyConsumerType "\"StateBasedEpEnergyConsumer\""
param **.host*.energyStorageType "\"SimpleEpEnergyStorage\""
param **.host*.energyStorage.nominalCapacity 1J
param **.host[*].energyStorage.initialCapacity "uniform(index * 0.01J, this.nominalCapacity)"
param **.host[*].khopca.updateInterval 3
param **.host[*].mobilityType "\"RandomWPMobility\""
param **.host[*].mobility.speed "uniform(index * 0.2mps,20mps)"
param **.host[*].mobility.waypointProximity 100m
param **.host[*].mobility.waitTime uniform(0s,1s)
param **.constraintAreaMinX 100m
param **.constraintAreaMinY 50m
param **.constraintAreaMinZ 0m
param **.constraintAreaMaxX 500m
param **.constraintAreaMaxY 500m
param **.constraintAreaMaxZ 10m
param **.hasStatus true

vector 0 SensorNetwork.host[0].energyStorage residualEnergyCapacity:vector ETV
attr interpolationmode linear
attr source residualEnergyCapacityChanged
attr title "Residual energy capacity, vector"
vector 1 SensorNetwork.host[0].wlan[0].queue queueLength:vector ETV
attr interpolationmode sample-hold
attr title "queue length, vector"
vector 2 SensorNetwork.host[1].energyStorage residualEnergyCapacity:vector ETV
attr interpolationmode linear
attr source residualEnergyCapacityChanged
attr title "Residual energy capacity, vector"
vector 3 SensorNetwork.host[1].wlan[0].queue queueLength:vector ETV
attr interpolationmode sample-hold
attr title "queue length, vector"
vector 4 SensorNetwork.host[2].energyStorage residualEnergyCapacity:vector ETV
attr interpolationmode linear
attr source residualEnergyCapacityChanged
attr title "Residual energy capacity, vector"
vector 5 SensorNetwork.host[2].wlan[0].queue queueLength:vector ETV
attr interpolationmode sample-hold
attr title "queue length, vector"
vector 6 SensorNetwork.host[3].energyStorage residualEnergyCapacity:vector ETV
attr interpolationmode linear
attr source residualEnergyCapacityChanged
attr title "Residual energy capacity, vector"
vector 7 SensorNetwork.host[3].wlan[0].queue queueLength:vector ETV
attr interpolationmode sample-hold
attr title "queue length, vector"
vector 8 SensorNetwork.host[4].energyStorage residualEnergyCapacity:vector ETV
attr interpolationmode linear
attr source residualEnergyCapacityChanged
attr title "Residual energy capacity, vector"
vector 9 SensorNetwork.host[4].wlan[0].queue queueLength:vector ETV
attr interpolationmode sample-hold
attr title "queue length, vector"
vector 10 SensorNetwork.host[5].energyStorage residualEnergyCapacity:vector ETV
attr interpolationmode linear
attr source residualEnergyCapacityChanged
attr title "Residual energy capacity, vector"
vector 11 SensorNetwork.host[5].wlan[0].queue queueLength:vector ETV
attr interpolationmode sample-hold
attr title "queue length, vector"
vector 12 SensorNetwork.host[6].energyStorage residualEnergyCapacity:vector ETV
attr interpolationmode linear
attr source residualEnergyCapacityChanged
attr title "Residual energy capacity, vector"
vector 13 SensorNetwork.host[6].wlan[0].queue queueLength:vector ETV
attr interpolationmode sample-hold
attr title "queue length, vector"
vector 14 SensorNetwork.host[7].energyStorage residualEnergyCapacity:vector ETV
attr interpolationmode linear
attr source residualEnergyCapacityChanged
attr title "Residual energy capacity, vector"
vector 15 SensorNetwork.host[7].wlan[0].queue queueLength:vector ETV
attr interpolationmode sample-hold
attr title "queue length, vector"
vector 16 SensorNetwork.host[8].energyStorage residualEnergyCapacity:vector ETV
attr interpolationmode linear
attr source residualEnergyCapacityChanged
attr title "Residual energy capacity, vector"
vector 17 SensorNetwork.host[8].wlan[0].queue queueLength:vector ETV
attr interpolationmode sample-hold
attr title "queue length, vector"
vector 18 SensorNetwork.host[9].energyStorage residualEnergyCapacity:vector ETV
attr interpolationmode linear
attr source residualEnergyCapacityChanged
attr title "Residual energy capacity, vector"
vector 19 SensorNetwork.host[9].wlan[0].queue queueLength:vector ETV
attr interpolationmode sample-hold
attr title "queue length, vector"
vector 20 SensorNetwork.host[10].energyStorage residualEnergyCapacity:vector ETV
attr interpolationmode linear
attr source residualEnergyCapacityChanged
attr title "Residual energy capacity, vector"
vector 21 SensorNetwork.host[10].wlan[0].queue queueLength:vector ETV
attr interpolationmode sample-hold
attr title "queue length, vector"
vector 22 SensorNetwork.host[11].energyStorage residualEnergyCapacity:vector ETV
attr interpolationmode linear
attr source residualEnergyCapacityChanged
attr title "Residual energy capacity, vector"
vector 23 SensorNetwork.host[11].wlan[0].queue queueLength:vector ETV
attr interpolationmode sample-hold
attr title "queue length, vector"
vector 24 SensorNetwork.host[12].energyStorage residualEnergyCapacity:vector ETV
attr interpolationmode linear
attr source residualEnergyCapacityChanged
attr title "Residual energy capacity, vector"
vector 25 SensorNetwork.host[12].wlan[0].queue queueLength:vector ETV
attr interpolationmode sample-hold
attr title "queue length, vector"
vector 26 SensorNetwork.host[13].energyStorage residualEnergyCapacity:vector ETV
attr interpolationmode linear
attr source residualEnergyCapacityChanged
attr title "Residual energy capacity, vector"
vector 27 SensorNetwork.host[13].wlan[0].queue queueLength:vector ETV
attr interpolationmode sample-hold
attr title "queue length, vector"
vector 28 SensorNetwork.host[14].energyStorage residualEnergyCapacity:vector ETV
attr interpolationmode linear
attr source residualEnergyCapacityChanged
attr title "Residual energy capacity, vector"
vector 29 SensorNetwork.host[14].wlan[0].queue queueLength:vector ETV
attr interpolationmode sample-hold
attr title "queue length, vector"
vector 30 SensorNetwork.host[15].energyStorage residualEnergyCapacity:vector ETV
attr interpolationmode linear
attr source residualEnergyCapacityChanged
attr title "Residual energy capacity, vector"
vector 31 SensorNetwork.host[15].wlan[0].queue queueLength:vector ETV
attr interpolationmode sample-hold
attr title "queue length, vector"
vector 32 SensorNetwork.host[16].energyStorage residualEnergyCapacity:vector ETV
attr interpolationmode linear
attr source residualEnergyCapacityChanged
attr title "Residual energy capacity, vector"
vector 33 SensorNetwork.host[16].wlan[0].queue queueLength:vector ETV
attr interpolationmode sample-hold
attr title "queue length, vector"
vector 34 SensorNetwork.host[17].energyStorage residualEnergyCapacity:vector ETV
attr interpolationmode linear
attr source residualEnergyCapacityChanged
attr title "Residual energy capacity, vector"
vector 35 SensorNetwork.host[17].wlan[0].queue queueLength:vector ETV
attr interpolationmode sample-hold
attr title "queue length, vector"
vector 36 SensorNetwork.host[18].energyStorage residualEnergyCapacity:vector ETV
attr interpolationmode linear
attr source residualEnergyCapacityChanged
attr title "Residual energy capacity, vector"
vector 37 SensorNetwork.host[18].wlan[0].queue queueLength:vector ETV
attr interpolationmode sample-hold
attr title "queue length, vector"
vector 38 SensorNetwork.host[19].energyStorage residualEnergyCapacity:vector ETV
attr interpolationmode linear
attr source residualEnergyCapacityChanged
attr title "Residual energy capacity, vector"
vector 39 SensorNetwork.host[19].wlan[0].queue queueLength:vector ETV
attr interpolationmode sample-hold
attr title "queue length, vector"
vector 40 SensorNetwork.host[20].energyStorage residualEnergyCapacity:vector ETV
attr interpolationmode linear
attr source residualEnergyCapacityChanged
attr title "Residual energy capacity, vector"
vector 41 SensorNetwork.host[20].wlan[0].queue queueLength:vector ETV
attr interpolationmode sample-hold
attr title "queue length, vector"
vector 42 SensorNetwork.host[21].energyStorage residualEnergyCapacity:vector ETV
attr interpolationmode linear
attr source residualEnergyCapacityChanged
attr title "Residual energy capacity, vector"
vector 43 SensorNetwork.host[21].wlan[0].queue queueLength:vector ETV
attr interpolationmode sample-hold
attr title "queue length, vector"
vector 44 SensorNetwork.host[22].energyStorage residualEnergyCapacity:vector ETV
attr interpolationmode linear
attr source residualEnergyCapacityChanged
attr title "Residual energy capacity, vector"
vector 45 SensorNetwork.host[22].wlan[0].queue queueLength:vector ETV
attr interpolationmode sample-hold
attr title "queue length, vector"
vector 46 SensorNetwork.host[23].energyStorage residualEnergyCapacity:vector ETV
attr interpolationmode linear
attr source residualEnergyCapacityChanged
attr title "Residual energy capacity, vector"
vector 47 SensorNetwork.host[23].wlan[0].queue queueLength:vector ETV
attr interpolationmode sample-hold
attr title "queue length, vector"
vector 48 SensorNetwork.host[24].energyStorage residualEnergyCapacity:vector ETV
attr interpolationmode linear
attr source residualEnergyCapacityChanged
attr title "Residual energy capacity, vector"
vector 49 SensorNetwork.host[24].wlan[0].queue queueLength:vector ETV
attr interpolationmode sample-hold
attr title "queue length, vector"
vector 50 SensorNetwork.host[25].energyStorage residualEnergyCapacity:vector ETV
attr interpolationmode linear
attr source residualEnergyCapacityChanged
attr title "Residual energy capacity, vector"
vector 51 SensorNetwork.host[25].wlan[0].queue queueLength:vector ETV
attr interpolationmode sample-hold
attr title "queue length, vector"
vector 52 SensorNetwork.host[26].energyStorage residualEnergyCapacity:vector ETV
attr interpolationmode linear
attr source residualEnergyCapacityChanged
attr title "Residual energy capacity, vector"
vector 53 SensorNetwork.host[26].wlan[0].queue queueLength:vector ETV
attr interpolationmode sample-hold
attr title "queue length, vector"
vector 54 SensorNetwork.host[27].energyStorage residualEnergyCapacity:vector ETV
attr interpolationmode linear
attr source residualEnergyCapacityChanged
attr title "Residual energy capacity, vector"
vector 55 SensorNetwork.host[27].wlan[0].queue queueLength:vector ETV
attr interpolationmode sample-hold
attr title "queue length, vector"
vector 56 SensorNetwork.host[28].energyStorage residualEnergyCapacity:vector ETV
attr interpolationmode linear
attr source residualEnergyCapacityChanged
attr title "Residual energy capacity, vector"
vector 57 SensorNetwork.host[28].wlan[0].queue queueLength:vector ETV
attr interpolationmode sample-hold
attr title "queue length, vector"
vector 58 SensorNetwork.host[29].energyStorage residualEnergyCapacity:vector ETV
attr interpolationmode linear
attr source residualEnergyCapacityChanged
attr title "Residual energy capacity, vector"
vector 59 SensorNetwork.host[29].wlan[0].queue queueLength:vector ETV
attr interpolationmode sample-hold
attr title "queue length, vector"
vector 60 SensorNetwork.host[30].energyStorage residualEnergyCapacity:vector ETV
attr interpolationmode linear
attr source residualEnergyCapacityChanged
attr title "Residual energy capacity, vector"
vector 61 SensorNetwork.host[30].wlan[0].queue queueLength:vector ETV
attr interpolationmode sample-hold
attr title "queue length, vector"
vector 62 SensorNetwork.host[31].energyStorage residualEnergyCapacity:vector ETV
attr interpolationmode linear
attr source residualEnergyCapacityChanged
attr title "Residual energy capacity, vector"
vector 63 SensorNetwork.host[31].wlan[0].queue queueLength:vector ETV
attr interpolationmode sample-hold
attr title "queue length, vector"
vector 64 SensorNetwork.host[32].energyStorage residualEnergyCapacity:vector ETV
attr interpolationmode linear
attr source residualEnergyCapacityChanged
attr title "Residual energy capacity, vector"
vector 65 SensorNetwork.host[32].wlan[0].queue queueLength:vector ETV
attr interpolationmode sample-hold
attr title "queue length, vector"
vector 66 SensorNetwork.host[33].energyStorage residualEnergyCapacity:vector ETV
attr interpolationmode linear
attr source residualEnergyCapacityChanged
attr title "Residual energy capacity, vector"
vector 67 SensorNetwork.host[33].wlan[0].queue queueLength:vector ETV
attr interpolationmode sample-hold
attr title "queue length, vector"
vector 68 SensorNetwork.host[34].energyStorage residualEnergyCapacity:vector ETV
attr interpolationmode linear
attr source residualEnergyCapacityChanged
attr title "Residual energy capacity, vector"
vector 69 SensorNetwork.host[34].wlan[0].queue queueLength:vector ETV
attr interpolationmode sample-hold
attr title "queue length, vector"
vector 70 SensorNetwork.host[35].energyStorage residualEnergyCapacity:vector ETV
attr interpolationmode linear
attr source residualEnergyCapacityChanged
attr title "Residual energy capacity, vector"
vector 71 SensorNetwork.host[35].wlan[0].queue queueLength:vector ETV
attr interpolationmode sample-hold
attr title "queue length, vector"
vector 72 SensorNetwork.host[36].energyStorage residualEnergyCapacity:vector ETV
attr interpolationmode linear
attr source residualEnergyCapacityChanged
attr title "Residual energy capacity, vector"
vector 73 SensorNetwork.host[36].wlan[0].queue queueLength:vector ETV
attr interpolationmode sample-hold
attr title "queue length, vector"
vector 74 SensorNetwork.host[37].energyStorage residualEnergyCapacity:vector ETV
attr interpolationmode linear
attr source residualEnergyCapacityChanged
attr title "Residual energy capacity, vector"
vector 75 SensorNetwork.host[37].wlan[0].queue queueLength:vector ETV
attr interpolationmode sample-hold
attr title "queue length, vector"
vector 76 SensorNetwork.host[38].energyStorage residualEnergyCapacity:vector ETV
attr interpolationmode linear
attr source residualEnergyCapacityChanged
attr title "Residual energy capacity, vector"
vector 77 SensorNetwork.host[38].wlan[0].queue queueLength:vector ETV
attr interpolationmode sample-hold
attr title "queue length, vector"
vector 78 SensorNetwork.host[39].energyStorage residualEnergyCapacity:vector ETV
attr interpolationmode linear
attr source residualEnergyCapacityChanged
attr title "Residual energy capacity, vector"
vector 79 SensorNetwork.host[39].wlan[0].queue queueLength:vector ETV
attr interpolationmode sample-hold
attr title "queue length, vector"
vector 80 SensorNetwork.host[40].energyStorage residualEnergyCapacity:vector ETV
attr interpolationmode linear
attr source residualEnergyCapacityChanged
attr title "Residual energy capacity, vector"
vector 81 SensorNetwork.host[40].wlan[0].queue queueLength:vector ETV
attr interpolationmode sample-hold
attr title "queue length, vector"
vector 82 SensorNetwork.host[41].energyStorage residualEnergyCapacity:vector ETV
attr interpolationmode linear
attr source residualEnergyCapacityChanged
attr title "Residual energy capacity, vector"
vector 83 SensorNetwork.host[41].wlan[0].queue queueLength:vector ETV
attr interpolationmode sample-hold
attr title "queue length, vector"
vector 84 SensorNetwork.host[42].energyStorage residualEnergyCapacity:vector ETV
attr interpolationmode linear
attr source residualEnergyCapacityChanged
attr title "Residual energy capacity, vector"
vector 85 SensorNetwork.host[42].wlan[0].queue queueLength:vector ETV
attr interpolationmode sample-hold
attr title "queue length, vector"
vector 86 SensorNetwork.host[43].energyStorage residualEnergyCapacity:vector ETV
attr interpolationmode linear
attr source residualEnergyCapacityChanged
attr title "Residual energy capacity, vector"
vector 87 SensorNetwork.host[43].wlan[0].queue queueLength:vector ETV
attr interpolationmode sample-hold
attr title "queue length, vector"
vector 88 SensorNetwork.host[44].energyStorage residualEnergyCapacity:vector ETV
attr interpolationmode linear
attr source residualEnergyCapacityChanged
attr title "Residual energy capacity, vector"
vector 89 SensorNetwork.host[44].wlan[0].queue queueLength:vector ETV
attr interpolationmode sample-hold
attr title "queue length, vector"
vector 90 SensorNetwork.host[45].energyStorage residualEnergyCapacity:vector ETV
attr interpolationmode linear
attr source residualEnergyCapacityChanged
attr title "Residual energy capacity, vector"
vector 91 SensorNetwork.host[45].wlan[0].queue queueLength:vector ETV
attr interpolationmode sample-hold
attr title "queue length, vector"
vector 92 SensorNetwork.host[46].energyStorage residualEnergyCapacity:vector ETV
attr interpolationmode linear
attr source residualEnergyCapacityChanged
attr title "Residual energy capacity, vector"
vector 93 SensorNetwork.host[46].wlan[0].queue queueLength:vector ETV
attr interpolationmode sample-hold
attr title "queue length, vector"
vector 94 SensorNetwork.host[47].energyStorage residualEnergyCapacity:vector ETV
attr interpolationmode linear
attr source residualEnergyCapacityChanged
attr title "Residual energy capacity, vector"
vector 95 SensorNetwork.host[47].wlan[0].queue queueLength:vector ETV
attr interpolationmode sample-hold
attr title "queue length, vector"
vector 96 SensorNetwork.host[48].energyStorage residualEnergyCapacity:vector ETV
attr interpolationmode linear
attr source residualEnergyCapacityChanged
attr title "Residual energy capacity, vector"
vector 97 SensorNetwork.host[48].wlan[0].queue queueLength:vector ETV
attr interpolationmode sample-hold
attr title "queue length, vector"
vector 98 SensorNetwork.host[49].energyStorage residualEnergyCapacity:vector ETV
attr interpolationmode linear
attr source residualEnergyCapacityChanged
attr title "Residual energy capacity, vector"
vector 99 SensorNetwork.host[49].wlan[0].queue queueLength:vector ETV
attr interpolationmode sample-hold
attr title "queue length, vector"
vector 100 SensorNetwork.host[0].energyStorage powerConsumption:vector ETV
attr interpolationmode sample-hold
attr source powerConsumptionChanged
attr title "Power consumption, vector"
vector 101 SensorNetwork.host[1].energyStorage powerConsumption:vector ETV
attr interpolationmode sample-hold
attr source powerConsumptionChanged
attr title "Power consumption, vector"
vector 102 SensorNetwork.host[2].energyStorage powerConsumption:vector ETV
attr interpolationmode sample-hold
attr source powerConsumptionChanged
attr title "Power consumption, vector"
vector 103 SensorNetwork.host[3].energyStorage powerConsumption:vector ETV
attr interpolationmode sample-hold
attr source powerConsumptionChanged
attr title "Power consumption, vector"
vector 104 SensorNetwork.host[4].energyStorage powerConsumption:vector ETV
attr interpolationmode sample-hold
attr source powerConsumptionChanged
attr title "Power consumption, vector"
vector 105 SensorNetwork.host[5].energyStorage powerConsumption:vector ETV
attr interpolationmode sample-hold
attr source powerConsumptionChanged
attr title "Power consumption, vector"
vector 106 SensorNetwork.host[6].energyStorage powerConsumption:vector ETV
attr interpolationmode sample-hold
attr source powerConsumptionChanged
attr title "Power consumption, vector"
vector 107 SensorNetwork.host[7].energyStorage powerConsumption:vector ETV
attr interpolationmode sample-hold
attr source powerConsumptionChanged
attr title "Power consumption, vector"
vector 108 SensorNetwork.host[8].energyStorage powerConsumption:vector ETV
attr interpolationmode sample-hold
attr source powerConsumptionChanged
attr title "Power consumption, vector"
vector 109 SensorNetwork.host[9].energyStorage powerConsumption:vector ETV
attr interpolationmode sample-hold
attr source powerConsumptionChanged
attr title "Power consumption, vector"
vector 110 SensorNetwork.host[10].energyStorage powerConsumption:vector ETV
attr interpolationmode sample-hold
attr source powerConsumptionChanged
attr title "Power consumption, vector"
vector 111 SensorNetwork.host[11].energyStorage powerConsumption:vector ETV
attr interpolationmode sample-hold
attr source powerConsumptionChanged
attr title "Power consumption, vector"
vector 112 SensorNetwork.host[12].energyStorage powerConsumption:vector ETV
attr interpolationmode sample-hold
attr source powerConsumptionChanged
attr title "Power consumption, vector"
vector 113 SensorNetwork.host[13].energyStorage powerConsumption:vector ETV
attr interpolationmode sample-hold
attr source powerConsumptionChanged
attr title "Power consumption, vector"
vector 114 SensorNetwork.host[14].energyStorage powerConsumption:vector ETV
attr interpolationmode sample-hold
attr source powerConsumptionChanged
attr title "Power consumption, vector"
vector 115 SensorNetwork.host[15].energyStorage powerConsumption:vector ETV
attr interpolationmode sample-hold
attr source powerConsumptionChanged
attr title "Power consumption, vector"
vector 116 SensorNetwork.host[16].energyStorage powerConsumption:vector ETV
attr interpolationmode sample-hold
attr source powerConsumptionChanged
attr title "Power consumption, vector"
vector 117 SensorNetwork.host[17].energyStorage powerConsumption:vector ETV
attr interpolationmode sample-hold
attr source powerConsumptionChanged
attr title "Power consumption, vector"
vector 118 SensorNetwork.host[18].energyStorage powerConsumption:vector ETV
attr interpolationmode sample-hold
attr source powerConsumptionChanged
attr title "Power consumption, vector"
vector 119 SensorNetwork.host[19].energyStorage powerConsumption:vector ETV
attr interpolationmode sample-hold
attr source powerConsumptionChanged
attr title "Power consumption, vector"
vector 120 SensorNetwork.host[20].energyStorage powerConsumption:vector ETV
attr interpolationmode sample-hold
attr source powerConsumptionChanged
attr title "Power consumption, vector"
vector 121 SensorNetwork.host[21].energyStorage powerConsumption:vector ETV
attr interpolationmode sample-hold
attr source powerConsumptionChanged
attr title "Power consumption, vector"
vector 122 SensorNetwork.host[22].energyStorage powerConsumption:vector ETV
attr interpolationmode sample-hold
attr source powerConsumptionChanged
attr title "Power consumption, vector"
vector 123 SensorNetwork.host[23].energyStorage powerConsumption:vector ETV
attr interpolationmode sample-hold
attr source powerConsumptionChanged
attr title "Power consumption, vector"
vector 124 SensorNetwork.host[24].energyStorage powerConsumption:vector ETV
attr interpolationmode sample-hold
attr source powerConsumptionChanged
attr title "Power consumption, vector"
vector 125 SensorNetwork.host[25].energyStorage powerConsumption:vector ETV
attr interpolationmode sample-hold
attr source powerConsumptionChanged
attr title "Power consumption, vector"
vector 126 SensorNetwork.host[26].energyStorage powerConsumption:vector ETV
attr interpolationmode sample-hold
attr source powerConsumptionChanged
attr title "Power consumption, vector"
vector 127 SensorNetwork.host[27].energyStorage powerConsumption:vector ETV
attr interpolationmode sample-hold
attr source powerConsumptionChanged
attr title "Power consumption, vector"
vector 128 SensorNetwork.host[28].energyStorage powerConsumption:vector ETV
attr interpolationmode sample-hold
attr source powerConsumptionChanged
attr title "Power consumption, vector"
vector 129 SensorNetwork.host[29].energyStorage powerConsumption:vector ETV
attr interpolationmode sample-hold
attr source powerConsumptionChanged
attr title "Power consumption, vector"
vector 130 SensorNetwork.host[30].energyStorage powerConsumption:vector ETV
attr interpolationmode sample-hold
attr source powerConsumptionChanged
attr title "Power consumption, vector"
vector 131 SensorNetwork.host[31].energyStorage powerConsumption:vector ETV
attr interpolationmode sample-hold
attr source powerConsumptionChanged
attr title "Power consumption, vector"
vector 132 SensorNetwork.host[32].energyStorage powerConsumption:vector ETV
attr interpolationmode sample-hold
attr source powerConsumptionChanged
attr title "Power consumption, vector"
vector 133 SensorNetwork.host[33].energyStorage powerConsumption:vector ETV
attr interpolationmode sample-hold
attr source powerConsumptionChanged
attr title "Power consumption, vector"
vector 134 SensorNetwork.host[34].energyStorage powerConsumption:vector ETV
attr interpolationmode sample-hold
attr source powerConsumptionChanged
attr title "Power consumption, vector"
vector 135 SensorNetwork.host[35].energyStorage powerConsumption:vector ETV
attr interpolationmode sample-hold
attr source powerConsumptionChanged
attr title "Power consumption, vector"
vector 136 SensorNetwork.host[36].energyStorage powerConsumption:vector ETV
attr interpolationmode sample-hold
attr source powerConsumptionChanged
attr title "Power consumption, vector"
vector 137 SensorNetwork.host[37].energyStorage powerConsumption:vector ETV
attr interpolationmode sample-hold
attr source powerConsumptionChanged
attr title "Power consumption, vector"
vector 138 SensorNetwork.host[38].energyStorage powerConsumption:vector ETV
attr interpolationmode sample-hold
attr source powerConsumptionChanged
attr title "Power consumption, vector"
vector 139 SensorNetwork.host[39].energyStorage powerConsumption:vector ETV
attr interpolationmode sample-hold
attr source powerConsumptionChanged
attr title "Power consumption, vector"
vector 140 SensorNetwork.host[40].energyStorage powerConsumption:vector ETV
attr interpolationmode sample-hold
attr source powerConsumptionChanged
attr title "Power consumption, vector"
vector 141 SensorNetwork.host[41].energyStorage powerConsumption:vector ETV
attr interpolationmode sample-hold
attr source powerConsumptionChanged
attr title "Power consumption, vector"
vector 142 SensorNetwork.host[42].energyStorage powerConsumption:vector ETV
attr interpolationmode sample-hold
attr source powerConsumptionChanged
attr title "Power consumption, vector"
vector 143 SensorNetwork.host[43].energyStorage powerConsumption:vector ETV
attr interpolationmode sample-hold
attr source powerConsumptionChanged
attr title "Power consumption, vector"
vector 144 SensorNetwork.host[44].energyStorage powerConsumption:vector ETV
attr interpolationmode sample-hold
attr source powerConsumptionChanged
attr title "Power consumption, vector"
vector 145 SensorNetwork.host[45].energyStorage powerConsumption:vector ETV
attr interpolationmode sample-hold
attr source powerConsumptionChanged
attr title "Power consumption, vector"
vector 146 SensorNetwork.host[46].energyStorage powerConsumption:vector ETV
attr interpolationmode sample-hold
attr source powerConsumptionChanged
attr title "Power consumption, vector"
vector 147 SensorNetwork.host[47].energyStorage powerConsumption:vector ETV
attr interpolationmode sample-hold
attr source powerConsumptionChanged
attr title "Power consumption, vector"
vector 148 SensorNetwork.host[48].energyStorage powerConsumption:vector ETV
attr interpolationmode sample-hold
attr source powerConsumptionChanged
attr title "Power consumption, vector"
vector 149 SensorNetwork.host[49].energyStorage powerConsumption:vector ETV
attr interpolationmode sample-hold
attr source powerConsumptionChanged
attr title "Power consumption, vector"
vector 150 SensorNetwork.host[0].wlan[0].radio radioMode:vector ETV
attr interpolationmode sample-hold
attr source radioModeChanged
attr title "Radio mode, vector"
vector 151 SensorNetwork.host[0].wlan[0].radio.energyConsumer powerConsumption:vector ETV
attr interpolationmode sample-hold
attr source powerConsumptionChanged
attr title "Power consumption, vector"
vector 152 SensorNetwork.host[1].wlan[0].radio radioMode:vector ETV
attr interpolationmode sample-hold
attr source radioModeChanged
attr title "Radio mode, vector"
vector 153 SensorNetwork.host[1].wlan[0].radio.energyConsumer powerConsumption:vector ETV
attr interpolationmode sample-hold
attr source powerConsumptionChanged
attr title "Power consumption, vector"
vector 154 SensorNetwork.host[2].wlan[0].radio radioMode:vector ETV
attr interpolationmode sample-hold
attr source radioModeChanged
attr title "Radio mode, vector"
vector 155 SensorNetwork.host[2].wlan[0].radio.energyConsumer powerConsumption:vector ETV
attr interpolationmode sample-hold
attr source powerConsumptionChanged
attr title "Power consumption, vector"
vector 156 SensorNetwork.host[3].wlan[0].radio radioMode:vector ETV
attr interpolationmode sample-hold
attr source radioModeChanged
attr title "Radio mode, vector"
vector 157 SensorNetwork.host[3].wlan[0].radio.energyConsumer powerConsumption:vector ETV
attr interpolationmode sample-hold
attr source powerConsumptionChanged
attr title "Power consumption, vector"
vector 158 SensorNetwork.host[4].wlan[0].radio radioMode:vector ETV
attr interpolationmode sample-hold
attr source radioModeChanged
attr title "Radio mode, vector"
vector 159 SensorNetwork.host[4].wlan[0].radio.energyConsumer powerConsumption:vector ETV
attr interpolationmode sample-hold
attr source powerConsumptionChanged
attr title "Power consumption, vector"
vector 160 SensorNetwork.host[5].wlan[0].radio radioMode:vector ETV
attr interpolationmode sample-hold
attr source radioModeChanged
attr title "Radio mode, vector"
vector 161 SensorNetwork.host[5].wlan[0].radio.energyConsumer powerConsumption:vector ETV
attr interpolationmode sample-hold
attr source powerConsumptionChanged
attr title "Power consumption, vector"
vector 162 SensorNetwork.host[6].wlan[0].radio radioMode:vector ETV
attr interpolationmode sample-hold
attr source radioModeChanged
attr title "Radio mode, vector"
vector 163 SensorNetwork.host[6].wlan[0].radio.energyConsumer powerConsumption:vector ETV
attr interpolationmode sample-hold
attr source powerConsumptionChanged
attr title "Power consumption, vector"
vector 164 SensorNetwork.host[7].wlan[0].radio radioMode:vector ETV
attr interpolationmode sample-hold
attr source radioModeChanged
attr title "Radio mode, vector"
vector 165 SensorNetwork.host[7].wlan[0].radio.energyConsumer powerConsumption:vector ETV
attr interpolationmode sample-hold
attr source powerConsumptionChanged
attr title "Power consumption, vector"
vector 166 SensorNetwork.host[8].wlan[0].radio radioMode:vector ETV
attr interpolationmode sample-hold
attr source radioModeChanged
attr title "Radio mode, vector"
vector 167 SensorNetwork.host[8].wlan[0].radio.energyConsumer powerConsumption:vector ETV
attr interpolationmode sample-hold
attr source powerConsumptionChanged
attr title "Power consumption, vector"
vector 168 SensorNetwork.host[9].wlan[0].radio radioMode:vector ETV
attr interpolationmode sample-hold
attr source radioModeChanged
attr title "Radio mode, vector"
vector 169 SensorNetwork.host[9].wlan[0].radio.energyConsumer powerConsumption:vector ETV
attr interpolationmode sample-hold
attr source powerConsumptionChanged
attr title "Power consumption, vector"
vector 170 SensorNetwork.host[10].wlan[0].radio radioMode:vector ETV
attr interpolationmode sample-hold
attr source radioModeChanged
attr title "Radio mode, vector"
vector 171 SensorNetwork.host[10].wlan[0].radio.energyConsumer powerConsumption:vector ETV
attr interpolationmode sample-hold
attr source powerConsumptionChanged
attr title "Power consumption, vector"
vector 172 SensorNetwork.host[11].wlan[0].radio radioMode:vector ETV
attr interpolationmode sample-hold
attr source radioModeChanged
attr title "Radio mode, vector"
vector 173 SensorNetwork.host[11].wlan[0].radio.energyConsumer powerConsumption:vector ETV
attr interpolationmode sample-hold
attr source powerConsumptionChanged
attr title "Power consumption, vector"
vector 174 SensorNetwork.host[12].wlan[0].radio radioMode:vector ETV
attr interpolationmode sample-hold
attr source radioModeChanged
attr title "Radio mode, vector"
vector 175 SensorNetwork.host[12].wlan[0].radio.energyConsumer powerConsumption:vector ETV
attr interpolationmode sample-hold
attr source powerConsumptionChanged
attr title "Power consumption, vector"
vector 176 SensorNetwork.host[13].wlan[0].radio radioMode:vector ETV
attr interpolationmode sample-hold
attr source radioModeChanged
attr title "Radio mode, vector"
vector 177 SensorNetwork.host[13].wlan[0].radio.energyConsumer powerConsumption:vector ETV
attr interpolationmode sample-hold
attr source powerConsumptionChanged
attr title "Power consumption, vector"
vector 178 SensorNetwork.host[14].wlan[0].radio radioMode:vector ETV
attr interpolationmode sample-hold
attr source radioModeChanged
attr title "Radio mode, vector"
vector 179 SensorNetwork.host[14].wlan[0].radio.energyConsumer powerConsumption:vector ETV
attr interpolationmode sample-hold
attr source powerConsumptionChanged
attr title "Power consumption, vector"
vector 180 SensorNetwork.host[15].wlan[0].radio radioMode:vector ETV
attr interpolationmode sample-hold
attr source radioModeChanged
attr title "Radio mode, vector"
vector 181 SensorNetwork.host[15].wlan[0].radio.energyConsumer powerConsumption:vector ETV
attr interpolationmode sample-hold
attr source powerConsumptionChanged
attr title "Power consumption, vector"
vector 182 SensorNetwork.host[16].wlan[0].radio radioMode:vector ETV
attr interpolationmode sample-hold
attr source radioModeChanged
attr title "Radio mode, vector"
vector 183 SensorNetwork.host[16].wlan[0].radio.energyConsumer powerConsumption:vector ETV
attr interpolationmode sample-hold
attr source powerConsumptionChanged
attr title "Power consumption, vector"
vector 184 SensorNetwork.host[17].wlan[0].radio radioMode:vector ETV
attr interpolationmode sample-hold
attr source radioModeChanged
attr title "Radio mode, vector"
vector 185 SensorNetwork.host[17].wlan[0].radio.energyConsumer powerConsumption:vector ETV
attr interpolationmode sample-hold
attr source powerConsumptionChanged
attr title "Power consumption, vector"
vector 186 SensorNetwork.host[18].wlan[0].radio radioMode:vector ETV
attr interpolationmode sample-hold
attr source radioModeChanged
attr title "Radio mode, vector"
vector 187 SensorNetwork.host[18].wlan[0].radio.energyConsumer powerConsumption:vector ETV
attr interpolationmode sample-hold
attr source powerConsumptionChanged
attr title "Power consumption, vector"
vector 188 SensorNetwork.host[19].wlan[0].radio radioMode:vector ETV
attr interpolationmode sample-hold
attr source radioModeChanged
attr title "Radio mode, vector"
vector 189 SensorNetwork.host[19].wlan[0].radio.energyConsumer powerConsumption:vector ETV
attr interpolationmode sample-hold
attr source powerConsumptionChanged
attr title "Power consumption, vector"
vector 190 SensorNetwork.host[20].wlan[0].radio radioMode:vector ETV
attr interpolationmode sample-hold
attr source radioModeChanged
attr title "Radio mode, vector"
vector 191 SensorNetwork.host[20].wlan[0].radio.energyConsumer powerConsumption:vector ETV
attr interpolationmode sample-hold
attr source powerConsumptionChanged
attr title "Power consumption, vector"
vector 192 SensorNetwork.host[21].wlan[0].radio radioMode:vector ETV
attr interpolationmode sample-hold
attr source radioModeChanged
attr title "Radio mode, vector"
vector 193 SensorNetwork.host[21].wlan[0].radio.energyConsumer powerConsumption:vector ETV
attr interpolationmode sample-hold
attr source powerConsumptionChanged
attr title "Power consumption, vector"
vector 194 SensorNetwork.host[22].wlan[0].radio radioMode:vector ETV
attr interpolationmode sample-hold
attr source radioModeChanged
attr title "Radio mode, vector"
vector 195 SensorNetwork.host[22].wlan[0].radio.energyConsumer powerConsumption:vector ETV
attr interpolationmode sample-hold
attr source powerConsumptionChanged
attr title "Power consumption, vector"
vector 196 SensorNetwork.host[23].wlan[0].radio radioMode:vector ETV
attr interpolationmode sample-hold
attr source radioModeChanged
attr title "Radio mode, vector"
vector 197 SensorNetwork.host[23].wlan[0].radio.energyConsumer powerConsumption:vector ETV
attr interpolationmode sample-hold
attr source powerConsumptionChanged
attr title "Power consumption, vector"
vector 198 SensorNetwork.host[24].wlan[0].radio radioMode:vector ETV
attr interpolationmode sample-hold
attr source radioModeChanged
attr title "Radio mode, vector"
vector 199 SensorNetwork.host[24].wlan[0].radio.energyConsumer powerConsumption:vector ETV
attr interpolationmode sample-hold
attr source powerConsumptionChanged
attr title "Power consumption, vector"
vector 200 SensorNetwork.host[25].wlan[0].radio radioMode:vector ETV
attr interpolationmode sample-hold
attr source radioModeChanged
attr title "Radio mode, vector"
vector 201 SensorNetwork.host[25].wlan[0].radio.energyConsumer powerConsumption:vector ETV
attr interpolationmode sample-hold
attr source powerConsumptionChanged
attr title "Power consumption, vector"
vector 202 SensorNetwork.host[26].wlan[0].radio radioMode:vector ETV
attr interpolationmode sample-hold
attr source radioModeChanged
attr title "Radio mode, vector"
vector 203 SensorNetwork.host[26].wlan[0].radio.energyConsumer powerConsumption:vector ETV
attr interpolationmode sample-hold
attr source powerConsumptionChanged
attr title "Power consumption, vector"
vector 204 SensorNetwork.host[27].wlan[0].radio radioMode:vector ETV
attr interpolationmode sample-hold
attr source radioModeChanged
attr title "Radio mode, vector"
vector 205 SensorNetwork.host[27].wlan[0].radio.energyConsumer powerConsumption:vector ETV
attr interpolationmode sample-hold
attr source powerConsumptionChanged
attr title "Power consumption, vector"
vector 206 SensorNetwork.host[28].wlan[0].radio radioMode:vector ETV
attr interpolationmode sample-hold
attr source radioModeChanged
attr title "Radio mode, vector"
vector 207 SensorNetwork.host[28].wlan[0].radio.energyConsumer powerConsumption:vector ETV
attr interpolationmode sample-hold
attr source powerConsumptionChanged
attr title "Power consumption, vector"
vector 208 SensorNetwork.host[29].wlan[0].radio radioMode:vector ETV
attr interpolationmode sample-hold
attr source radioModeChanged
attr title "Radio mode, vector"
vector 209 SensorNetwork.host[29].wlan[0].radio.energyConsumer powerConsumption:vector ETV
attr interpolationmode sample-hold
attr source powerConsumptionChanged
attr title "Power consumption, vector"
vector 210 SensorNetwork.host[30].wlan[0].radio radioMode:vector ETV
attr interpolationmode sample-hold
attr source radioModeChanged
attr title "Radio mode, vector"
vector 211 SensorNetwork.host[30].wlan[0].radio.energyConsumer powerConsumption:vector ETV
attr interpolationmode sample-hold
attr source powerConsumptionChanged
attr title "Power consumption, vector"
vector 212 SensorNetwork.host[31].wlan[0].radio radioMode:vector ETV
attr interpolationmode sample-hold
attr source radioModeChanged
attr title "Radio mode, vector"
vector 213 SensorNetwork.host[31].wlan[0].radio.energyConsumer powerConsumption:vector ETV
attr interpolationmode sample-hold
attr source powerConsumptionChanged
attr title "Power consumption, vector"
vector 214 SensorNetwork.host[32].wlan[0].radio radioMode:vector ETV
attr interpolationmode sample-hold
attr source radioModeChanged
attr title "Radio mode, vector"
vector 215 SensorNetwork.host[32].wlan[0].radio.energyConsumer powerConsumption:vector ETV
attr interpolationmode sample-hold
attr source powerConsumptionChanged
attr title "Power consumption, vector"
vector 216 SensorNetwork.host[33].wlan[0].radio radioMode:vector ETV
attr interpolationmode sample-hold
attr source radioModeChanged
attr title "Radio mode, vector"
vector 217 SensorNetwork.host[33].wlan[0].radio.energyConsumer powerConsumption:vector ETV
attr interpolationmode sample-hold
attr source powerConsumptionChanged
attr title "Power consumption, vector"
vector 218 SensorNetwork.host[34].wlan[0].radio radioMode:vector ETV
attr interpolationmode sample-hold
attr source radioModeChanged
attr title "Radio mode, vector"
vector 219 SensorNetwork.host[34].wlan[0].radio.energyConsumer powerConsumption:vector ETV
attr interpolationmode sample-hold
attr source powerConsumptionChanged
attr title "Power consumption, vector"
vector 220 SensorNetwork.host[35].wlan[0].radio radioMode:vector ETV
attr interpolationmode sample-hold
attr source radioModeChanged
attr title "Radio mode, vector"
vector 221 SensorNetwork.host[35].wlan[0].radio.energyConsumer powerConsumption:vector ETV
attr interpolationmode sample-hold
attr source powerConsumptionChanged
attr title "Power consumption, vector"
vector 222 SensorNetwork.host[36].wlan[0].radio radioMode:vector ETV
attr interpolationmode sample-hold
attr source radioModeChanged
attr title "Radio mode, vector"
vector 223 SensorNetwork.host[36].wlan[0].radio.energyConsumer powerConsumption:vector ETV
attr interpolationmode sample-hold
attr source powerConsumptionChanged
attr title "Power consumption, vector"
vector 224 SensorNetwork.host[37].wlan[0].radio radioMode:vector ETV
attr interpolationmode sample-hold
attr source radioModeChanged
attr title "Radio mode, vector"
vector 225 SensorNetwork.host[37].wlan[0].radio.energyConsumer powerConsumption:vector ETV
attr interpolationmode sample-hold
attr source powerConsumptionChanged
attr title "Power consumption, vector"
vector 226 SensorNetwork.host[38].wlan[0].radio radioMode:vector ETV
attr interpolationmode sample-hold
attr source radioModeChanged
attr title "Radio mode, vector"
vector 227 SensorNetwork.host[38].wlan[0].radio.energyConsumer powerConsumption:vector ETV
attr interpolationmode sample-hold
attr source powerConsumptionChanged
attr title "Power consumption, vector"
vector 228 SensorNetwork.host[39].wlan[0].radio radioMode:vector ETV
attr interpolationmode sample-hold
attr source radioModeChanged
attr title "Radio mode, vector"
vector 229 SensorNetwork.host[39].wlan[0].radio.energyConsumer powerConsumption:vector ETV
attr interpolationmode sample-hold
attr source powerConsumptionChanged
attr title "Power consumption, vector"
vector 230 SensorNetwork.host[40].wlan[0].radio radioMode:vector ETV
attr interpolationmode sample-hold
attr source radioModeChanged
attr title "Radio mode, vector"
vector 231 SensorNetwork.host[40].wlan[0].radio.energyConsumer powerConsumption:vector ETV
attr interpolationmode sample-hold
attr source powerConsumptionChanged
attr title "Power consumption, vector"
vector 232 SensorNetwork.host[41].wlan[0].radio radioMode:vector ETV
attr interpolationmode sample-hold
attr source radioModeChanged
attr title "Radio mode, vector"
vector 233 SensorNetwork.host[41].wlan[0].radio.energyConsumer powerConsumption:vector ETV
attr interpolationmode sample-hold
attr source powerConsumptionChanged
attr title "Power consumption, vector"
vector 234 SensorNetwork.host[42].wlan[0].radio radioMode:vector ETV
attr interpolationmode sample-hold
attr source radioModeChanged
attr title "Radio mode, vector"
vector 235 SensorNetwork.host[42].wlan[0].radio.energyConsumer powerConsumption:vector ETV
attr interpolationmode sample-hold
attr source powerConsumptionChanged
attr title "Power consumption, vector"
vector 236 SensorNetwork.host[43].wlan[0].radio radioMode:vector ETV
attr interpolationmode sample-hold
attr source radioModeChanged
attr title "Radio mode, vector"
vector 237 SensorNetwork.host[43].wlan[0].radio.energyConsumer powerConsumption:vector ETV
attr interpolationmode sample-hold
attr source powerConsumptionChanged
attr title "Power consumption, vector"
vector 238 SensorNetwork.host[44].wlan[0].radio radioMode:vector ETV
attr interpolationmode sample-hold
attr source radioModeChanged
attr title "Radio mode, vector"
vector 239 SensorNetwork.host[44].wlan[0].radio.energyConsumer powerConsumption:vector ETV
attr interpolationmode sample-hold
attr source powerConsumptionChanged
attr title "Power consumption, vector"
vector 240 SensorNetwork.host[45].wlan[0].radio radioMode:vector ETV
attr interpolationmode sample-hold
attr source radioModeChanged
attr title "Radio mode, vector"
vector 241 SensorNetwork.host[45].wlan[0].radio.energyConsumer powerConsumption:vector ETV
attr interpolationmode sample-hold
attr source powerConsumptionChanged
attr title "Power consumption, vector"
vector 242 SensorNetwork.host[46].wlan[0].radio radioMode:vector ETV
attr interpolationmode sample-hold
attr source radioModeChanged
attr title "Radio mode, vector"
vector 243 SensorNetwork.host[46].wlan[0].radio.energyConsumer powerConsumption:vector ETV
attr interpolationmode sample-hold
attr source powerConsumptionChanged
attr title "Power consumption, vector"
vector 244 SensorNetwork.host[47].wlan[0].radio radioMode:vector ETV
attr interpolationmode sample-hold
attr source radioModeChanged
attr title "Radio mode, vector"
vector 245 SensorNetwork.host[47].wlan[0].radio.energyConsumer powerConsumption:vector ETV
attr interpolationmode sample-hold
attr source powerConsumptionChanged
attr title "Power consumption, vector"
vector 246 SensorNetwork.host[48].wlan[0].radio radioMode:vector ETV
attr interpolationmode sample-hold
attr source radioModeChanged
attr title "Radio mode, vector"
vector 247 SensorNetwork.host[48].wlan[0].radio.energyConsumer powerConsumption:vector ETV
attr interpolationmode sample-hold
attr source powerConsumptionChanged
attr title "Power consumption, vector"
vector 248 SensorNetwork.host[49].wlan[0].radio radioMode:vector ETV
attr interpolationmode sample-hold
attr source radioModeChanged
attr title "Radio mode, vector"
vector 249 SensorNetwork.host[49].wlan[0].radio.energyConsumer powerConsumption:vector ETV
attr interpolationmode sample-hold
attr source powerConsumptionChanged
attr title "Power consumption, vector"
vector 250 SensorNetwork.host[0].wlan[0].radio receptionState:vector ETV
attr interpolationmode sample-hold
attr source receptionStateChanged
attr title "Radio reception state, vector"
vector 251 SensorNetwork.host[1].wlan[0].radio receptionState:vector ETV
attr interpolationmode sample-hold
attr source receptionStateChanged
attr title "Radio reception state, vector"
vector 252 SensorNetwork.host[2].wlan[0].radio receptionState:vector ETV
attr interpolationmode sample-hold
attr source receptionStateChanged
attr title "Radio reception state, vector"
vector 253 SensorNetwork.host[3].wlan[0].radio receptionState:vector ETV
attr interpolationmode sample-hold
attr source receptionStateChanged
attr title "Radio reception state, vector"
vector 254 SensorNetwork.host[4].wlan[0].radio receptionState:vector ETV
attr interpolationmode sample-hold
attr source receptionStateChanged
attr title "Radio reception state, vector"
vector 255 SensorNetwork.host[5].wlan[0].radio receptionState:vector ETV
attr interpolationmode sample-hold
attr source receptionStateChanged
attr title "Radio reception state, vector"
vector 256 SensorNetwork.host[6].wlan[0].radio receptionState:vector ETV
attr interpolationmode sample-hold
attr source receptionStateChanged
attr title "Radio reception state, vector"
vector 257 SensorNetwork.host[7].wlan[0].radio receptionState:vector ETV
attr interpolationmode sample-hold
attr source receptionStateChanged
attr title "Radio reception state, vector"
vector 258 SensorNetwork.host[8].wlan[0].radio receptionState:vector ETV
attr interpolationmode sample-hold
attr source receptionStateChanged
attr title "Radio reception state, vector"
vector 259 SensorNetwork.host[9].wlan[0].radio receptionState:vector ETV
attr interpolationmode sample-hold
attr source receptionStateChanged
attr title "Radio reception state, vector"
vector 260 SensorNetwork.host[10].wlan[0].radio receptionState:vector ETV
attr interpolationmode sample-hold
attr source receptionStateChanged
attr title "Radio reception state, vector"
vector 261 SensorNetwork.host[11].wlan[0].radio receptionState:vector ETV
attr interpolationmode sample-hold
attr source receptionStateChanged
attr title "Radio reception state, vector"
vector 262 SensorNetwork.host[12].wlan[0].radio receptionState:vector ETV
attr interpolationmode sample-hold
attr source receptionStateChanged
attr title "Radio reception state, vector"
vector 263 SensorNetwork.host[13].wlan[0].radio receptionState:vector ETV
attr interpolationmode sample-hold
attr source receptionStateChanged
attr title "Radio reception state, vector"
vector 264 SensorNetwork.host[14].wlan[0].radio receptionState:vector ETV
attr interpolationmode sample-hold
attr source receptionStateChanged
attr title "Radio reception state, vector"
vector 265 SensorNetwork.host[15].wlan[0].radio receptionState:vector ETV
attr interpolationmode sample-hold
attr source receptionStateChanged
attr title "Radio reception state, vector"
vector 266 SensorNetwork.host[16].wlan[0].radio receptionState:vector ETV
attr interpolationmode sample-hold
attr source receptionStateChanged
attr title "Radio reception state, vector"
vector 267 SensorNetwork.host[17].wlan[0].radio receptionState:vector ETV
attr interpolationmode sample-hold
attr source receptionStateChanged
attr title "Radio reception state, vector"
vector 268 SensorNetwork.host[18].wlan[0].radio receptionState:vector ETV
attr interpolationmode sample-hold
attr source receptionStateChanged
attr title "Radio reception state, vector"
vector 269 SensorNetwork.host[19].wlan[0].radio receptionState:vector ETV
attr interpolationmode sample-hold
attr source receptionStateChanged
attr title "Radio reception state, vector"
vector 270 SensorNetwork.host[20].wlan[0].radio receptionState:vector ETV
attr interpolationmode sample-hold
attr source receptionStateChanged
attr title "Radio reception state, vector"
vector 271 SensorNetwork.host[21].wlan[0].radio receptionState:vector ETV
attr interpolationmode sample-hold
attr source receptionStateChanged
attr title "Radio reception state, vector"
vector 272 SensorNetwork.host[22].wlan[0].radio receptionState:vector ETV
attr interpolationmode sample-hold
attr source receptionStateChanged
attr title "Radio reception state, vector"
vector 273 SensorNetwork.host[23].wlan[0].radio receptionState:vector ETV
attr interpolationmode sample-hold
attr source receptionStateChanged
attr title "Radio reception state, vector"
vector 274 SensorNetwork.host[24].wlan[0].radio receptionState:vector ETV
attr interpolationmode sample-hold
attr source receptionStateChanged
attr title "Radio reception state, vector"
vector 275 SensorNetwork.host[25].wlan[0].radio receptionState:vector ETV
attr interpolationmode sample-hold
attr source receptionStateChanged
attr title "Radio reception state, vector"
vector 276 SensorNetwork.host[26].wlan[0].radio receptionState:vector ETV
attr interpolationmode sample-hold
attr source receptionStateChanged
attr title "Radio reception state, vector"
vector 277 SensorNetwork.host[27].wlan[0].radio receptionState:vector ETV
attr interpolationmode sample-hold
attr source receptionStateChanged
attr title "Radio reception state, vector"
vector 278 SensorNetwork.host[28].wlan[0].radio receptionState:vector ETV
attr interpolationmode sample-hold
attr source receptionStateChanged
attr title "Radio reception state, vector"
vector 279 SensorNetwork.host[29].wlan[0].radio receptionState:vector ETV
attr interpolationmode sample-hold
attr source receptionStateChanged
attr title "Radio reception state, vector"
vector 280 SensorNetwork.host[30].wlan[0].radio receptionState:vector ETV
attr interpolationmode sample-hold
attr source receptionStateChanged
attr title "Radio reception state, vector"
vector 281 SensorNetwork.host[31].wlan[0].radio receptionState:vector ETV
attr interpolationmode sample-hold
attr source receptionStateChanged
attr title "Radio reception state, vector"
vector 282 SensorNetwork.host[32].wlan[0].radio receptionState:vector ETV
attr interpolationmode sample-hold
attr source receptionStateChanged
attr title "Radio reception state, vector"
vector 283 SensorNetwork.host[33].wlan[0].radio receptionState:vector ETV
attr interpolationmode sample-hold
attr source receptionStateChanged
attr title "Radio reception state, vector"
vector 284 SensorNetwork.host[34].wlan[0].radio receptionState:vector ETV
attr interpolationmode sample-hold
attr source receptionStateChanged
attr title "Radio reception state, vector"
vector 285 SensorNetwork.host[35].wlan[0].radio receptionState:vector ETV
attr interpolationmode sample-hold
attr source receptionStateChanged
attr title "Radio reception state, vector"
vector 286 SensorNetwork.host[36].wlan[0].radio receptionState:vector ETV
attr interpolationmode sample-hold
attr source receptionStateChanged
attr title "Radio reception state, vector"
vector 287 SensorNetwork.host[37].wlan[0].radio receptionState:vector ETV
attr interpolationmode sample-hold
attr source receptionStateChanged
attr title "Radio reception state, vector"
vector 288 SensorNetwork.host[38].wlan[0].radio receptionState:vector ETV
attr interpolationmode sample-hold
attr source receptionStateChanged
attr title "Radio reception state, vector"
vector 289 SensorNetwork.host[39].wlan[0].radio receptionState:vector ETV
attr interpolationmode sample-hold
attr source receptionStateChanged
attr title "Radio reception state, vector"
vector 290 SensorNetwork.host[40].wlan[0].radio receptionState:vector ETV
attr interpolationmode sample-hold
attr source receptionStateChanged
attr title "Radio reception state, vector"
vector 291 SensorNetwork.host[41].wlan[0].radio receptionState:vector ETV
attr interpolationmode sample-hold
attr source receptionStateChanged
attr title "Radio reception state, vector"
vector 292 SensorNetwork.host[42].wlan[0].radio receptionState:vector ETV
attr interpolationmode sample-hold
attr source receptionStateChanged
attr title "Radio reception state, vector"
vector 293 SensorNetwork.host[43].wlan[0].radio receptionState:vector ETV
attr interpolationmode sample-hold
attr source receptionStateChanged
attr title "Radio reception state, vector"
vector 294 SensorNetwork.host[44].wlan[0].radio receptionState:vector ETV
attr interpolationmode sample-hold
attr source receptionStateChanged
attr title "Radio reception state, vector"
vector 295 SensorNetwork.host[45].wlan[0].radio receptionState:vector ETV
attr interpolationmode sample-hold
attr source receptionStateChanged
attr title "Radio reception state, vector"
vector 296 SensorNetwork.host[46].wlan[0].radio receptionState:vector ETV
attr interpolationmode sample-hold
attr source receptionStateChanged
attr title "Radio reception state, vector"
vector 297 SensorNetwork.host[47].wlan[0].radio receptionState:vector ETV
attr interpolationmode sample-hold
attr source receptionStateChanged
attr title "Radio reception state, vector"
vector 298 SensorNetwork.host[48].wlan[0].radio receptionState:vector ETV
attr interpolationmode sample-hold
attr source receptionStateChanged
attr title "Radio reception state, vector"
vector 299 SensorNetwork.host[49].wlan[0].radio receptionState:vector ETV
attr interpolationmode sample-hold
attr source receptionStateChanged
attr title "Radio reception state, vector"
vector 300 SensorNetwork.host[9].wlan[0].queue rcvdPk:vector(packetBytes) ETV
attr interpolationmode none
attr title "received packets, vector(packetBytes)"
vector 301 SensorNetwork.host[9].wlan[0].queue queueingTime:vector ETV
attr interpolationmode none
attr title "queueing time, vector"
vector 302 SensorNetwork.host[9].wlan[0].mac rcvdPkFromHL:vector(packetBytes) ETV
attr interpolationmode none
attr source packetReceivedFromUpper
attr title "packets received from higher layer, vector(packetBytes)"
vector 303 SensorNetwork.host[9].wlan[0].radio transmissionState:vector ETV
attr interpolationmode sample-hold
attr source transmissionStateChanged
attr title "Radio transmission state, vector"
vector 304 SensorNetwork.host[9].wlan[0].mac sentDownPk:vector(packetBytes) ETV
attr interpolationmode none
attr source packetSentToLower
attr title "packets sent to lower layer, vector(packetBytes)"
vector 305 SensorNetwork.host[7].wlan[0].mac rcvdPkFromLL:vector(packetBytes) ETV
attr interpolationmode none
attr source packetReceivedFromLower
attr title "packets received from lower layer, vector(packetBytes)"
vector 306 SensorNetwork.host[7].wlan[0].mac passedUpPk:vector(packetBytes) ETV
attr interpolationmode none
attr source packetSentToUpper
attr title "packets passed to higher layer, vector(packetBytes)"
vector 307 SensorNetwork.host[10].wlan[0].mac rcvdPkFromLL:vector(packetBytes) ETV
attr interpolationmode none
attr source packetReceivedFromLower
attr title "packets received from lower layer, vector(packetBytes)"
vector 308 SensorNetwork.host[10].wlan[0].mac passedUpPk:vector(packetBytes) ETV
attr interpolationmode none
attr source packetSentToUpper
attr title "packets passed to higher layer, vector(packetBytes)"
vector 309 SensorNetwork.host[0].wlan[0].mac rcvdPkFromLL:vector(packetBytes) ETV
attr interpolationmode none
attr source packetReceivedFromLower
attr title "packets received from lower layer, vector(packetBytes)"
vector 310 SensorNetwork.host[0].wlan[0].mac passedUpPk:vector(packetBytes) ETV
attr interpolationmode none
attr source packetSentToUpper
attr title "packets passed to higher layer, vector(packetBytes)"
vector 311 SensorNetwork.host[20].wlan[0].mac rcvdPkFromLL:vector(packetBytes) ETV
attr interpolationmode none
attr source packetReceivedFromLower
attr title "packets received from lower layer, vector(packetBytes)"
vector 312 SensorNetwork.host[20].wlan[0].mac passedUpPk:vector(packetBytes) ETV
attr interpolationmode none
attr source packetSentToUpper
attr title "packets passed to higher layer, vector(packetBytes)"
vector 313 SensorNetwork.host[21].wlan[0].mac rcvdPkFromLL:vector(packetBytes) ETV
attr interpolationmode none
attr source packetReceivedFromLower
attr title "packets received from lower layer, vector(packetBytes)"
vector 314 SensorNetwork.host[21].wlan[0].mac passedUpPk:vector(packetBytes) ETV
attr interpolationmode none
attr source packetSentToUpper
attr title "packets passed to higher layer, vector(packetBytes)"
vector 315 SensorNetwork.host[49].wlan[0].mac rcvdPkFromLL:vector(packetBytes) ETV
attr interpolationmode none
attr source packetReceivedFromLower
attr title "packets received from lower layer, vector(packetBytes)"
vector 316 SensorNetwork.host[49].wlan[0].mac passedUpPk:vector(packetBytes) ETV
attr interpolationmode none
attr source packetSentToUpper
attr title "packets passed to higher layer, vector(packetBytes)"
vector 317 SensorNetwork.host[25].wlan[0].mac rcvdPkFromLL:vector(packetBytes) ETV
attr interpolationmode none
attr source packetReceivedFromLower
attr title "packets received from lower layer, vector(packetBytes)"
vector 318 SensorNetwork.host[25].wlan[0].mac passedUpPk:vector(packetBytes) ETV
attr interpolationmode none
attr source packetSentToUpper
attr title "packets passed to higher layer, vector(packetBytes)"
vector 319 SensorNetwork.host[26].wlan[0].mac rcvdPkFromLL:vector(packetBytes) ETV
attr interpolationmode none
attr source packetReceivedFromLower
attr title "packets received from lower layer, vector(packetBytes)"
vector 320 SensorNetwork.host[26].wlan[0].mac passedUpPk:vector(packetBytes) ETV
attr interpolationmode none
attr source packetSentToUpper
attr title "packets passed to higher layer, vector(packetBytes)"
vector 321 SensorNetwork.host[19].wlan[0].mac rcvdPkFromLL:vector(packetBytes) ETV
attr interpolationmode none
attr source packetReceivedFromLower
attr title "packets received from lower layer, vector(packetBytes)"
vector 322 SensorNetwork.host[19].wlan[0].mac passedUpPk:vector(packetBytes) ETV
attr interpolationmode none
attr source packetSentToUpper
attr title "packets passed to higher layer, vector(packetBytes)"
vector 323 SensorNetwork.host[41].wlan[0].mac rcvdPkFromLL:vector(packetBytes) ETV
attr interpolationmode none
attr source packetReceivedFromLower
attr title "packets received from lower layer, vector(packetBytes)"
vector 324 SensorNetwork.host[41].wlan[0].mac passedUpPk:vector(packetBytes) ETV
attr interpolationmode none
attr source packetSentToUpper
attr title "packets passed to higher layer, vector(packetBytes)"
vector 325 SensorNetwork.host[28].wlan[0].mac rcvdPkFromLL:vector(packetBytes) ETV
attr interpolationmode none
attr source packetReceivedFromLower
attr title "packets received from lower layer, vector(packetBytes)"
vector 326 SensorNetwork.host[28].wlan[0].mac passedUpPk:vector(packetBytes) ETV
attr interpolationmode none
attr source packetSentToUpper
attr title "packets passed to higher layer, vector(packetBytes)"
vector 327 SensorNetwork.host[45].wlan[0].mac rcvdPkFromLL:vector(packetBytes) ETV
attr interpolationmode none
attr source packetReceivedFromLower
attr title "packets received from lower layer, vector(packetBytes)"
vector 328 SensorNetwork.host[45].wlan[0].mac passedUpPk:vector(packetBytes) ETV
attr interpolationmode none
attr source packetSentToUpper
attr title "packets passed to higher layer, vector(packetBytes)"
vector 329 SensorNetwork.host[36].wlan[0].mac rcvdPkFromLL:vector(packetBytes) ETV
attr interpolationmode none
attr source packetReceivedFromLower
attr title "packets received from lower layer, vector(packetBytes)"
vector 330 SensorNetwork.host[36].wlan[0].mac passedUpPk:vector(packetBytes) ETV
attr interpolationmode none
attr source packetSentToUpper
attr title "packets passed to higher layer, vector(packetBytes)"
vector 331 SensorNetwork.host[5].wlan[0].mac rcvdPkFromLL:vector(packetBytes) ETV
attr interpolationmode none
attr source packetReceivedFromLower
attr title "packets received from lower layer, vector(packetBytes)"
vector 332 SensorNetwork.host[5].wlan[0].mac passedUpPk:vector(packetBytes) ETV
attr interpolationmode none
attr source packetSentToUpper
attr title "packets passed to higher layer, vector(packetBytes)"
vector 333 SensorNetwork.host[1].wlan[0].mac rcvdPkFromLL:vector(packetBytes) ETV
attr interpolationmode none
attr source packetReceivedFromLower
attr title "packets received from lower layer, vector(packetBytes)"
vector 334 SensorNetwork.host[1].wlan[0].mac passedUpPk:vector(packetBytes) ETV
attr interpolationmode none
attr source packetSentToUpper
attr title "packets passed to higher layer, vector(packetBytes)"
vector 335 SensorNetwork.host[8].wlan[0].mac rcvdPkFromLL:vector(packetBytes) ETV
attr interpolationmode none
attr source packetReceivedFromLower
attr title "packets received from lower layer, vector(packetBytes)"
vector 336 SensorNetwork.host[8].wlan[0].mac passedUpPk:vector(packetBytes) ETV
attr interpolationmode none
attr source packetSentToUpper
attr title "packets passed to higher layer, vector(packetBytes)"
vector 337 SensorNetwork.host[4].wlan[0].mac rcvdPkFromLL:vector(packetBytes) ETV
attr interpolationmode none
attr source packetReceivedFromLower
attr title "packets received from lower layer, vector(packetBytes)"
vector 338 SensorNetwork.host[4].wlan[0].mac passedUpPk:vector(packetBytes) ETV
attr interpolationmode none
attr source packetSentToUpper
attr title "packets passed to higher layer, vector(packetBytes)"
vector 339 SensorNetwork.host[48].wlan[0].mac rcvdPkFromLL:vector(packetBytes) ETV
attr interpolationmode none
attr source packetReceivedFromLower
attr title "packets received from lower layer, vector(packetBytes)"
vector 340 SensorNetwork.host[48].wlan[0].mac passedUpPk:vector(packetBytes) ETV
attr interpolationmode none
attr source packetSentToUpper
attr title "packets passed to higher layer, vector(packetBytes)"
vector 341 SensorNetwork.host[11].wlan[0].mac rcvdPkFromLL:vector(packetBytes) ETV
attr interpolationmode none
attr source packetReceivedFromLower
attr title "packets received from lower layer, vector(packetBytes)"
vector 342 SensorNetwork.host[11].wlan[0].mac passedUpPk:vector(packetBytes) ETV
attr interpolationmode none
attr source packetSentToUpper
attr title "packets passed to higher layer, vector(packetBytes)"
vector 343 SensorNetwork.host[30].wlan[0].mac rcvdPkFromLL:vector(packetBytes) ETV
attr interpolationmode none
attr source packetReceivedFromLower
attr title "packets received from lower layer, vector(packetBytes)"
vector 344 SensorNetwork.host[30].wlan[0].mac passedUpPk:vector(packetBytes) ETV
attr interpolationmode none
attr source packetSentToUpper
attr title "packets passed to higher layer, vector(packetBytes)"
vector 345 SensorNetwork.host[27].wlan[0].mac rcvdPkFromLL:vector(packetBytes) ETV
attr interpolationmode none
attr source packetReceivedFromLower
attr title "packets received from lower layer, vector(packetBytes)"
vector 346 SensorNetwork.host[27].wlan[0].mac passedUpPk:vector(packetBytes) ETV
attr interpolationmode none
attr source packetSentToUpper
attr title "packets passed to higher layer, vector(packetBytes)"
vector 347 SensorNetwork.host[40].wlan[0].mac rcvdPkFromLL:vector(packetBytes) ETV
attr interpolationmode none
attr source packetReceivedFromLower
attr title "packets received from lower layer, vector(packetBytes)"
vector 348 SensorNetwork.host[40].wlan[0].mac passedUpPk:vector(packetBytes) ETV
attr interpolationmode none
attr source packetSentToUpper
attr title "packets passed to higher layer, vector(packetBytes)"
vector 349 SensorNetwork.host[34].wlan[0].mac rcvdPkFromLL:vector(packetBytes) ETV
attr interpolationmode none
attr source packetReceivedFromLower
attr title "packets received from lower layer, vector(packetBytes)"
vector 350 SensorNetwork.host[34].wlan[0].mac passedUpPk:vector(packetBytes) ETV
attr interpolationmode none
attr source packetSentToUpper
attr title "packets passed to higher layer, vector(packetBytes)"
vector 351 SensorNetwork.host[29].wlan[0].mac rcvdPkFromLL:vector(packetBytes) ETV
attr interpolationmode none
attr source packetReceivedFromLower
attr title "packets received from lower layer, vector(packetBytes)"
vector 352 SensorNetwork.host[29].wlan[0].mac passedUpPk:vector(packetBytes) ETV
attr interpolationmode none
attr source packetSentToUpper
attr title "packets passed to higher layer, vector(packetBytes)"
vector 353 SensorNetwork.host[32].wlan[0].mac rcvdPkFromLL:vector(packetBytes) ETV
attr interpolationmode none
attr source packetReceivedFromLower
attr title "packets received from lower layer, vector(packetBytes)"
vector 354 SensorNetwork.host[32].wlan[0].mac passedUpPk:vector(packetBytes) ETV
attr interpolationmode none
attr source packetSentToUpper
attr title "packets passed to higher layer, vector(packetBytes)"
vector 355 SensorNetwork.host[47].wlan[0].mac rcvdPkFromLL:vector(packetBytes) ETV
attr interpolationmode none
attr source packetReceivedFromLower
attr title "packets received from lower layer, vector(packetBytes)"
vector 356 SensorNetwork.host[47].wlan[0].mac passedUpPk:vector(packetBytes) ETV
attr interpolationmode none
attr source packetSentToUpper
attr title "packets passed to higher layer, vector(packetBytes)"
vector 357 SensorNetwork.host[16].wlan[0].mac rcvdPkFromLL:vector(packetBytes) ETV
attr interpolationmode none
attr source packetReceivedFromLower
attr title "packets received from lower layer, vector(packetBytes)"
vector 358 SensorNetwork.host[16].wlan[0].mac passedUpPk:vector(packetBytes) ETV
attr interpolationmode none
attr source packetSentToUpper
attr title "packets passed to higher layer, vector(packetBytes)"
vector 359 SensorNetwork.host[44].wlan[0].mac rcvdPkFromLL:vector(packetBytes) ETV
attr interpolationmode none
attr source packetReceivedFromLower
attr title "packets received from lower layer, vector(packetBytes)"
vector 360 SensorNetwork.host[44].wlan[0].mac passedUpPk:vector(packetBytes) ETV
attr interpolationmode none
attr source packetSentToUpper
attr title "packets passed to higher layer, vector(packetBytes)"
vector 361 SensorNetwork.host[17].wlan[0].mac rcvdPkFromLL:vector(packetBytes) ETV
attr interpolationmode none
attr source packetReceivedFromLower
attr title "packets received from lower layer, vector(packetBytes)"
vector 362 SensorNetwork.host[17].wlan[0].mac passedUpPk:vector(packetBytes) ETV
attr interpolationmode none
attr source packetSentToUpper
attr title "packets passed to higher layer, vector(packetBytes)"
vector 363 SensorNetwork.host[22].wlan[0].mac rcvdPkFromLL:vector(packetBytes) ETV
attr interpolationmode none
attr source packetReceivedFromLower
attr title "packets received from lower layer, vector(packetBytes)"
vector 364 SensorNetwork.host[22].wlan[0].mac passedUpPk:vector(packetBytes) ETV
attr interpolationmode none
attr source packetSentToUpper
attr title "packets passed to higher layer, vector(packetBytes)"
vector 365 SensorNetwork.host[15].wlan[0].mac rcvdPkFromLL:vector(packetBytes) ETV
attr interpolationmode none
attr source packetReceivedFromLower
attr title "packets received from lower layer, vector(packetBytes)"
vector 366 SensorNetwork.host[15].wlan[0].mac passedUpPk:vector(packetBytes) ETV
attr interpolationmode none
attr source packetSentToUpper
attr title "packets passed to higher layer, vector(packetBytes)"
vector 367 SensorNetwork.host[39].wlan[0].mac rcvdPkFromLL:vector(packetBytes) ETV
attr interpolationmode none
attr source packetReceivedFromLower
attr title "packets received from lower layer, vector(packetBytes)"
vector 368 SensorNetwork.host[39].wlan[0].mac passedUpPk:vector(packetBytes) ETV
attr interpolationmode none
attr source packetSentToUpper
attr title "packets passed to higher layer, vector(packetBytes)"
vector 369 SensorNetwork.host[23].wlan[0].mac rcvdPkFromLL:vector(packetBytes) ETV
attr interpolationmode none
attr source packetReceivedFromLower
attr title "packets received from lower layer, vector(packetBytes)"
vector 370 SensorNetwork.host[23].wlan[0].mac passedUpPk:vector(packetBytes) ETV
attr interpolationmode none
attr source packetSentToUpper
attr title "packets passed to higher layer, vector(packetBytes)"
vector 371 SensorNetwork.host[35].wlan[0].mac rcvdPkFromLL:vector(packetBytes) ETV
attr interpolationmode none
attr source packetReceivedFromLower
attr title "packets received from lower layer, vector(packetBytes)"
vector 372 SensorNetwork.host[35].wlan[0].mac passedUpPk:vector(packetBytes) ETV
attr interpolationmode none
attr source packetSentToUpper
attr title "packets passed to higher layer, vector(packetBytes)"
vector 373 SensorNetwork.host[3].wlan[0].mac rcvdPkFromLL:vector(packetBytes) ETV
attr interpolationmode none
attr source packetReceivedFromLower
attr title "packets received from lower layer, vector(packetBytes)"
vector 374 SensorNetwork.host[3].wlan[0].mac passedUpPk:vector(packetBytes) ETV
attr interpolationmode none
attr source packetSentToUpper
attr title "packets passed to higher layer, vector(packetBytes)"
vector 375 SensorNetwork.host[24].wlan[0].mac rcvdPkFromLL:vector(packetBytes) ETV
attr interpolationmode none
attr source packetReceivedFromLower
attr title "packets received from lower layer, vector(packetBytes)"
vector 376 SensorNetwork.host[24].wlan[0].mac passedUpPk:vector(packetBytes) ETV
attr interpolationmode none
attr source packetSentToUpper
attr title "packets passed to higher layer, vector(packetBytes)"
vector 377 SensorNetwork.host[38].wlan[0].mac rcvdPkFromLL:vector(packetBytes) ETV
attr interpolationmode none
attr source packetReceivedFromLower
attr title "packets received from lower layer, vector(packetBytes)"
vector 378 SensorNetwork.host[38].wlan[0].mac passedUpPk:vector(packetBytes) ETV
attr interpolationmode none
attr source packetSentToUpper
attr title "packets passed to higher layer, vector(packetBytes)"
vector 379 SensorNetwork.host[37].wlan[0].mac rcvdPkFromLL:vector(packetBytes) ETV
attr interpolationmode none
attr source packetReceivedFromLower
attr title "packets received from lower layer, vector(packetBytes)"
vector 380 SensorNetwork.host[37].wlan[0].mac passedUpPk:vector(packetBytes) ETV
attr interpolationmode none
attr source packetSentToUpper
attr title "packets passed to higher layer, vector(packetBytes)"
vector 381 SensorNetwork.host[6].wlan[0].mac rcvdPkFromLL:vector(packetBytes) ETV
attr interpolationmode none
attr source packetReceivedFromLower
attr title "packets received from lower layer, vector(packetBytes)"
vector 382 SensorNetwork.host[6].wlan[0].mac passedUpPk:vector(packetBytes) ETV
attr interpolationmode none
attr source packetSentToUpper
attr title "packets passed to higher layer, vector(packetBytes)"
vector 383 SensorNetwork.host[14].wlan[0].mac rcvdPkFromLL:vector(packetBytes) ETV
attr interpolationmode none
attr source packetReceivedFromLower
attr title "packets received from lower layer, vector(packetBytes)"
vector 384 SensorNetwork.host[14].wlan[0].mac passedUpPk:vector(packetBytes) ETV
attr interpolationmode none
attr source packetSentToUpper
attr title "packets passed to higher layer, vector(packetBytes)"
vector 385 SensorNetwork.host[18].wlan[0].mac rcvdPkFromLL:vector(packetBytes) ETV
attr interpolationmode none
attr source packetReceivedFromLower
attr title "packets received from lower layer, vector(packetBytes)"
vector 386 SensorNetwork.host[18].wlan[0].mac passedUpPk:vector(packetBytes) ETV
attr interpolationmode none
attr source packetSentToUpper
attr title "packets passed to higher layer, vector(packetBytes)"
vector 387 SensorNetwork.host[31].wlan[0].mac rcvdPkFromLL:vector(packetBytes) ETV
attr interpolationmode none
attr source packetReceivedFromLower
attr title "packets received from lower layer, vector(packetBytes)"
vector 388 SensorNetwork.host[31].wlan[0].mac passedUpPk:vector(packetBytes) ETV
attr interpolationmode none
attr source packetSentToUpper
attr title "packets passed to higher layer, vector(packetBytes)"
vector 389 SensorNetwork.host[12].wlan[0].mac rcvdPkFromLL:vector(packetBytes) ETV
attr interpolationmode none
attr source packetReceivedFromLower
attr title "packets received from lower layer, vector(packetBytes)"
vector 390 SensorNetwork.host[12].wlan[0].mac passedUpPk:vector(packetBytes) ETV
attr interpolationmode none
attr source packetSentToUpper
attr title "packets passed to higher layer, vector(packetBytes)"
vector 391 SensorNetwork.host[2].wlan[0].mac rcvdPkFromLL:vector(packetBytes) ETV
attr interpolationmode none
attr source packetReceivedFromLower
attr title "packets received from lower layer, vector(packetBytes)"
vector 392 SensorNetwork.host[2].wlan[0].mac passedUpPk:vector(packetBytes) ETV
attr interpolationmode none
attr source packetSentToUpper
attr title "packets passed to higher layer, vector(packetBytes)"
vector 393 SensorNetwork.host[42].wlan[0].mac rcvdPkFromLL:vector(packetBytes) ETV
attr interpolationmode none
attr source packetReceivedFromLower
attr title "packets received from lower layer, vector(packetBytes)"
vector 394 SensorNetwork.host[42].wlan[0].mac passedUpPk:vector(packetBytes) ETV
attr interpolationmode none
attr source packetSentToUpper
attr title "packets passed to higher layer, vector(packetBytes)"
vector 395 SensorNetwork.host[13].wlan[0].mac rcvdPkFromLL:vector(packetBytes) ETV
attr interpolationmode none
attr source packetReceivedFromLower
attr title "packets received from lower layer, vector(packetBytes)"
vector 396 SensorNetwork.host[13].wlan[0].mac passedUpPk:vector(packetBytes) ETV
attr interpolationmode none
attr source packetSentToUpper
attr title "packets passed to higher layer, vector(packetBytes)"
vector 397 SensorNetwork.host[43].wlan[0].mac rcvdPkFromLL:vector(packetBytes) ETV
attr interpolationmode none
attr source packetReceivedFromLower
attr title "packets received from lower layer, vector(packetBytes)"
vector 398 SensorNetwork.host[43].wlan[0].mac passedUpPk:vector(packetBytes) ETV
attr interpolationmode none
attr source packetSentToUpper
attr title "packets passed to higher layer, vector(packetBytes)"
vector 399 SensorNetwork.host[46].wlan[0].mac rcvdPkFromLL:vector(packetBytes) ETV
attr interpolationmode none
attr source packetReceivedFromLower
attr title "packets received from lower layer, vector(packetBytes)"
vector 400 SensorNetwork.host[46].wlan[0].mac passedUpPk:vector(packetBytes) ETV
attr interpolationmode none
attr source packetSentToUpper
attr title "packets passed to higher layer, vector(packetBytes)"
vector 401 SensorNetwork.host[33].wlan[0].mac rcvdPkFromLL:vector(packetBytes) ETV
attr interpolationmode none
attr source packetReceivedFromLower
attr title "packets received from lower layer, vector(packetBytes)"
vector 402 SensorNetwork.host[33].wlan[0].mac passedUpPk:vector(packetBytes) ETV
attr interpolationmode none
attr source packetSentToUpper
attr title "packets passed to higher layer, vector(packetBytes)"
vector 403 SensorNetwork.host[18].wlan[0].queue rcvdPk:vector(packetBytes) ETV
attr interpolationmode none
attr title "received packets, vector(packetBytes)"
vector 404 SensorNetwork.host[18].wlan[0].queue queueingTime:vector ETV
attr interpolationmode none
attr title "queueing time, vector"
vector 405 SensorNetwork.host[18].wlan[0].mac rcvdPkFromHL:vector(packetBytes) ETV
attr interpolationmode none
attr source packetReceivedFromUpper
attr title "packets received from higher layer, vector(packetBytes)"
vector 406 SensorNetwork.host[18].wlan[0].radio transmissionState:vector ETV
attr interpolationmode sample-hold
attr source transmissionStateChanged
attr title "Radio transmission state, vector"
vector 407 SensorNetwork.host[18].wlan[0].mac sentDownPk:vector(packetBytes) ETV
attr interpolationmode none
attr source packetSentToLower
attr title "packets sent to lower layer, vector(packetBytes)"
vector 408 SensorNetwork.host[9].wlan[0].mac rcvdPkFromLL:vector(packetBytes) ETV
attr interpolationmode none
attr source packetReceivedFromLower
attr title "packets received from lower layer, vector(packetBytes)"
vector 409 SensorNetwork.host[9].wlan[0].mac passedUpPk:vector(packetBytes) ETV
attr interpolationmode none
attr source packetSentToUpper
attr title "packets passed to higher layer, vector(packetBytes)"
vector 410 SensorNetwork.host[44].wlan[0].queue rcvdPk:vector(packetBytes) ETV
attr interpolationmode none
attr title "received packets, vector(packetBytes)"
vector 411 SensorNetwork.host[44].wlan[0].queue queueingTime:vector ETV
attr interpolationmode none
attr title "queueing time, vector"
vector 412 SensorNetwork.host[44].wlan[0].mac rcvdPkFromHL:vector(packetBytes) ETV
attr interpolationmode none
attr source packetReceivedFromUpper
attr title "packets received from higher layer, vector(packetBytes)"
vector 413 SensorNetwork.host[44].wlan[0].radio transmissionState:vector ETV
attr interpolationmode sample-hold
attr source transmissionStateChanged
attr title "Radio transmission state, vector"
[...]
386	9274676 4448 78147 131106 24.767173603023 40.911021700617 151 28 28 4228 118384
387	9279124 4154 78159 131126 24.767173659664 40.911021782641 141 28 28 3948 110544
388	9283278 4154 78159 131126 24.767173659664 40.911021782641 141 28 28 3948 110544
389	9287432 4131 78055 131002 24.767173131186 40.911021106571 140 28 28 3920 109760
390	9291563 4131 78055 131002 24.767173131186 40.911021106571 140 28 28 3920 109760
391	9295694 4100 78163 130732 24.767173661895 40.810427917356 139 28 28 3892 108976
392	9299794 4100 78163 130732 24.767173661895 40.810427917356 139 28 28 3892 108976
393	9303894 3770 78067 131030 24.76717317053 40.911021206232 128 28 28 3584 100352
394	9307664 3770 78067 131030 24.76717317053 40.911021206232 128 28 28 3584 100352
395	9311434 3718 78079 131034 24.767173214422 40.911021222385 126 28 28 3528 98784
396	9315152 3718 78079 131034 24.767173214422 40.911021222385 126 28 28 3528 98784
397	9318870 4130 78167 131122 24.767173695445 40.911021765785 140 28 28 3920 109760
398	9323000 4130 78167 131122 24.767173695445 40.911021765785 140 28 28 3920 109760
399	9327130 5525 78063 130978 24.767173153424 40.911020953852 188 28 28 5264 147392
400	9332655 5525 78063 130978 24.767173153424 40.911020953852 188 28 28 5264 147392
401	9338180 5693 77995 131233 24.767172871674 40.977068481909 193 28 28 5404 151312
402	9343873 5693 77995 131233 24.767172871674 40.977068481909 193 28 28 5404 151312
403	9349566 177 79510 130642 25.113971389344 40.810203507684 6 28 28 168 4704
404	9349743 171 79510 130642 25.113971389344 40.810203507684 6 0 0 0 0
405	9349914 177 79511 130643 25.113971389344 40.810203507684 6 28 28 168 4704
406	9350091 684 79511 130694 25.113971389344 40.810427507684 24 0 2 24 36
407	9350775 177 79511 130643 25.113971389344 40.810203507684 6 28 28 168 4704
408	9350952 4351 78119 131102 24.767173385489 40.911021689019 148 28 28 4144 116032
409	9355303 4351 78119 131102 24.767173385489 40.911021689019 148 28 28 4144 116032
410	9359654 147 81131 122715 25.682198673712 38.523298010568 5 28 28 140 3920
411	9359801 142 81131 122715 25.682198673712 38.523298010568 5 0 0 0 0
412	9359943 147 81132 122716 25.682198673712 38.523298010568 5 28 28 140 3920
413	9360090 568 81132 122767 25.682198673712 38.523522010568 20 0 2 20 30
414	9360658 147 81132 122716 25.682198673712 38.523298010568 5 28 28 140 3920
415	9360805 147 81377 123157 25.698084135056 38.547126202584 5 28 28 140 3920
416	9360952 142 81377 123157 25.698084135056 38.547126202584 5 0 0 0 0
417	9361094 147 81378 123158 25.698084135056 38.547126202584 5 28 28 140 3920
418	9361241 568 81378 123210 25.698084135056 38.547350202584 20 0 2 20 30
419	9361809 147 81378 123158 25.698084135056 38.547126202584 5 28 28 140 3920
420	9361956 86 81806 103453 25.77638973996 32.22048717495 3 28 28 84 2352
421	9362042 83 81806 103453 25.77638973996 32.22048717495 3 0 0 0 0
422	9362125 86 81807 103454 25.77638973996 32.22048717495 3 28 28 84 2352
423	9362211 332 81807 103505 25.77638973996 32.22071117495 12 0 2 12 18
424	9362543 86 81807 103454 25.77638973996 32.22048717495 3 28 28 84 2352
425	9362629 147 82323 124195 25.908342204352 38.862513306528 5 28 28 140 3920
426	9362776 142 82323 124195 25.908342204352 38.862513306528 5 0 0 0 0
427	9362918 147 82324 124196 25.908342204352 38.862513306528 5 28 28 140 3920
428	9363065 568 82324 124247 25.908342204352 38.862737306528 20 0 2 20 30
429	9363633 147 82324 124196 25.908342204352 38.862513306528 5 28 28 140 3920
430	9363780 142 83885 126362 26.20219256584 39.30328884876 5 28 28 140 3920
431	9363922 137 83885 126362 26.20219256584 39.30328884876 5 0 0 0 0
432	9364059 142 83886 126363 26.20219256584 39.30328884876 5 28 28 140 3920
433	9364201 548 83886 126414 26.20219256584 39.30351284876 20 0 2 20 30
434	9364749 142 83886 126363 26.20219256584 39.30328884876 5 28 28 140 3920
435	9364891 143 84662 127351 26.3488179202 39.5232268803 5 28 28 140 3920
436	9365034 138 84662 127351 26.3488179202 39.5232268803 5 0 0 0 0
437	9365172 143 84663 127352 26.3488179202 39.5232268803 5 28 28 140 3920
438	9365315 552 84663 127403 26.3488179202 39.5234508803 20 0 2 20 30
439	9365867 143 84663 127352 26.3488179202 39.5232268803 5 28 28 140 3920
440	9366010 147 85141 128290 26.430716042336 39.646074063504 5 28 28 140 3920
441	9366157 142 85141 128290 26.430716042336 39.646074063504 5 0 0 0 0
442	9366299 147 85142 128291 26.430716042336 39.646074063504 5 28 28 140 3920
443	9366446 568 85142 128342 26.430716042336 39.646298063504 20 0 2 20 30
444	9367014 147 85142 128291 26.430716042336 39.646074063504 5 28 28 140 3920
445	9367161 145 85509 129131 26.67807824988 40.01711737482 5 28 28 140 3920
446	9367306 140 85509 129131 26.67807824988 40.01711737482 5 0 0 0 0
447	9367446 145 85510 129132 26.67807824988 40.01711737482 5 28 28 140 3920
448	9367591 560 85510 129184 26.67807824988 40.01734137482 20 0 2 20 30
449	9368151 145 85510 129132 26.67807824988 40.01711737482 5 28 28 140 3920
450	9368296 147 85790 129398 26.715142656896 40.072713985344 5 28 28 140 3920
451	9368443 142 85790 129398 26.715142656896 40.072713985344 5 0 0 0 0
452	9368585 147 85791 129399 26.715142656896 40.072713985344 5 28 28 140 3920
453	9368732 568 85791 129450 26.715142656896 40.072937985344 20 0 2 20 30
454	9369300 147 85791 129399 26.715142656896 40.072713985344 5 28 28 140 3920
455	9369447 147 87273 130904 27.273864530136 40.910796795204 5 28 28 140 3920
456	9369594 142 87273 130904 27.273864530136 40.910796795204 5 0 0 0 0
457	9369736 147 87274 130905 27.273864530136 40.910796795204 5 28 28 140 3920
458	9369883 568 87274 130956 27.273864530136 40.911020795204 20 0 2 20 30
459	9370451 147 87274 130905 27.273864530136 40.910796795204 5 28 28 140 3920
460	9370598 113 88070 120776 27.46860785592 37.76933580189 4 28 28 112 3136
461	9370711 109 88070 120776 27.46860785592 37.76933580189 4 0 0 0 0
462	9370820 113 88071 120777 27.46860785592 37.76933580189 4 28 28 112 3136
463	9370933 436 88071 120828 27.46860785592 37.76955980189 16 0 2 16 24
464	9371369 113 88071 120777 27.46860785592 37.76933580189 4 28 28 112 3136
465	9371482 117 88290 121001 27.492459776776 37.802132193067 4 28 28 112 3136
466	9371599 113 88290 121001 27.492459776776 37.802132193067 4 0 0 0 0
467	9371712 117 88291 121002 27.492459776776 37.802132193067 4 28 28 112 3136
468	9371829 452 88291 121053 27.492459776776 37.802356193067 16 0 2 16 24
469	9372281 117 88291 121002 27.492459776776 37.802132193067 4 28 28 112 3136
470	9372398 118 89735 122937 28.031701314784 38.543589307828 4 28 28 112 3136
471	9372516 114 89735 122937 28.031701314784 38.543589307828 4 0 0 0 0
472	9372630 118 89736 122938 28.031701314784 38.543589307828 4 28 28 112 3136
473	9372748 456 89736 122989 28.031701314784 38.543813307828 16 0 2 16 24
474	9373204 118 89736 122938 28.031701314784 38.543589307828 4 28 28 112 3136
480	9373322 147 78458 124937 24.806740774207 38.982021216611 5 28 28 140 3920
481	9373469 142 78458 124937 24.806740774207 38.982021216611 5 0 0 0 0
482	9373611 147 78459 124938 24.806740774207 38.982021216611 5 28 28 140 3920
483	9373758 568 78459 124989 24.806740774207 38.982245216611 20 0 2 20 30
484	9374326 147 78459 124938 24.806740774207 38.982021216611 5 28 28 140 3920
485	9374473 147 80839 129628 25.511836926219 40.090029455487 5 28 28 140 3920
486	9374620 142 80839 129628 25.511836926219 40.090029455487 5 0 0 0 0
487	9374762 147 80840 129629 25.511836926219 40.090029455487 5 28 28 140 3920
488	9374909 568 80840 129680 25.511836926219 40.090253455487 20 0 2 20 30
489	9375477 147 80840 129629 25.511836926219 40.090029455487 5 28 28 140 3920
490	9375624 29 83377 83377 26.122779522546 26.122779522546 1 28 28 28 784
491	9375653 28 83377 83377 26.122779522546 26.122779522546 1 0 0 0 0
492	9375681 29 83378 83378 26.122779522546 26.122779522546 1 28 28 28 784
493	9375710 112 83378 83429 26.122779522546 26.123003522546 4 0 2 4 6
494	9375822 29 83378 83378 26.122779522546 26.122779522546 1 28 28 28 784
495	9375851 117 83642 119511 26.181031319464 37.40147331352 4 28 28 112 3136
496	9375968 113 83642 119511 26.181031319464 37.40147331352 4 0 0 0 0
497	9376081 117 83643 119512 26.181031319464 37.40147331352 4 28 28 112 3136
498	9376198 452 83643 119563 26.181031319464 37.40169731352 16 0 2 16 24
499	9376650 117 83643 119512 26.181031319464 37.40147331352 4 28 28 112 3136
500	9376767 116 84368 119967 26.250530796945 37.50075828135 4 28 28 112 3136
501	9376883 112 84368 119967 26.250530796945 37.50075828135 4 0 0 0 0
502	9376995 116 84369 119968 26.250530796945 37.50075828135 4 28 28 112 3136
503	9377111 448 84369 120019 26.250530796945 37.50098228135 16 0 2 16 24
504	9377559 116 84369 119968 26.250530796945 37.50075828135 4 28 28 112 3136
505	9377675 116 86110 122431 26.887214503905 38.41030643415 4 28 28 112 3136
506	9377791 112 86110 122431 26.887214503905 38.41030643415 4 0 0 0 0
507	9377903 116 86111 122432 26.887214503905 38.41030643415 4 28 28 112 3136
508	9378019 448 86111 122483 26.887214503905 38.41053043415 16 0 2 16 24
509	9378467 116 86111 122432 26.887214503905 38.41030643415 4 28 28 112 3136
510	9378583 116 86736 123954 27.197262863925 38.85323266275 4 28 28 112 3136
511	9378699 112 86736 123954 27.197262863925 38.85323266275 4 0 0 0 0
512	9378811 116 86737 123955 27.197262863925 38.85323266275 4 28 28 112 3136
513	9378927 448 86737 124006 27.197262863925 38.85345666275 16 0 2 16 24
514	9379375 116 86737 123955 27.197262863925 38.85323266275 4 28 28 112 3136
515	9379491 118 87008 124647 27.219016975633 38.88430996519 4 28 28 112 3136
516	9379609 114 87008 124647 27.219016975633 38.88430996519 4 0 0 0 0
517	9379723 118 87009 124648 27.219016975633 38.88430996519 4 28 28 112 3136
518	9379841 456 87009 124699 27.219016975633 38.88453396519 16 0 2 16 24
519	9380297 118 87009 124648 27.219016975633 38.88430996519 4 28 28 112 3136
520	9380415 118 87841 126118 27.462243656379 39.23177665197 4 28 28 112 3136
521	9380533 114 87841 126118 27.462243656379 39.23177665197 4 0 0 0 0
522	9380647 118 87842 126119 27.462243656379 39.23177665197 4 28 28 112 3136
523	9380765 456 87842 126170 27.462243656379 39.23200065197 16 0 2 16 24
524	9381221 118 87842 126119 27.462243656379 39.23177665197 4 28 28 112 3136
525	9381339 118 88808 126848 27.603067311176 39.43295330168 4 28 28 112 3136
526	9381457 114 88808 126848 27.603067311176 39.43295330168 4 0 0 0 0
527	9381571 118 88809 126849 27.603067311176 39.43295330168 4 28 28 112 3136
528	9381689 456 88809 126900 27.603067311176 39.43317730168 16 0 2 16 24
529	9382145 118 88809 126849 27.603067311176 39.43295330168 4 28 28 112 3136
530	9382263 118 89049 127113 27.635505608662 39.47929372666 4 28 28 112 3136
531	9382381 114 89049 127113 27.635505608662 39.47929372666 4 0 0 0 0
532	9382495 118 89050 127114 27.635505608662 39.47929372666 4 28 28 112 3136
533	9382613 456 89050 127165 27.635505608662 39.47951772666 16 0 2 16 24
534	9383069 118 89050 127114 27.635505608662 39.47929372666 4 28 28 112 3136
535	9383187 118 90746 130293 28.372817828558 40.53259689794 4 28 28 112 3136
536	9383305 114 90746 130293 28.372817828558 40.53259689794 4 0 0 0 0
537	9383419 118 90747 130294 28.372817828558 40.53259689794 4 28 28 112 3136
538	9383537 456 90747 130345 28.372817828558 40.53282089794 16 0 2 16 24
539	9383993 118 90747 130294 28.372817828558 40.53259689794 4 28 28 112 3136
540	9384111 118 78694 118985 24.872995306122 37.309492959183 4 28 28 112 3136
541	9384229 114 78694 118985 24.872995306122 37.309492959183 4 0 0 0 0
542	9384343 118 78695 118986 24.872995306122 37.309492959183 4 28 28 112 3136
543	9384461 456 78695 119037 24.872995306122 37.309716959183 16 0 2 16 24
544	9384917 118 78695 118986 24.872995306122 37.309492959183 4 28 28 112 3136
545	9385035 118 79163 119235 24.893937698316 37.340906547474 4 28 28 112 3136
546	9385153 114 79163 119235 24.893937698316 37.340906547474 4 0 0 0 0
547	9385267 118 79164 119236 24.893937698316 37.340906547474 4 28 28 112 3136
548	9385385 456 79164 119287 24.893937698316 37.341130547474 16 0 2 16 24
549	9385841 118 79164 119236 24.893937698316 37.340906547474 4 28 28 112 3136
550	9385959 118 79817 121303 25.305564754002 37.958347131003 4 28 28 112 3136
551	9386077 114 79817 121303 25.305564754002 37.958347131003 4 0 0 0 0
552	9386191 118 79818 121304 25.305564754002 37.958347131003 4 28 28 112 3136
553	9386309 456 79818 121355 25.305564754002 37.958571131003 16 0 2 16 24
554	9386765 118 79818 121304 25.305564754002 37.958347131003 4 28 28 112 3136
555	9386883 118 80059 121586 25.391697182862 38.087545774293 4 28 28 112 3136
556	9387001 114 80059 121586 25.391697182862 38.087545774293 4 0 0 0 0
557	9387115 118 80060 121587 25.391697182862 38.087545774293 4 28 28 112 3136
558	9387233 456 80060 121638 25.391697182862 38.087769774293 16 0 2 16 24
559	9387689 118 80060 121587 25.391697182862 38.087545774293 4 28 28 112 3136
560	9387807 118 80338 121867 25.449175903986 38.173763855979 4 28 28 112 3136
561	9387925 114 80338 121867 25.449175903986 38.173763855979 4 0 0 0 0
562	9388039 118 80339 121868 25.449175903986 38.173763855979 4 28 28 112 3136
563	9388157 456 80339 121919 25.449175903986 38.173987855979 16 0 2 16 24
564	9388613 118 80339 121868 25.449175903986 38.173763855979 4 28 28 112 3136
565	9388731 118 80550 122067 25.457509750098 38.186264625147 4 28 28 112 3136
566	9388849 114 80550 122067 25.457509750098 38.186264625147 4 0 0 0 0
567	9388963 118 80551 122068 25.457509750098 38.186264625147 4 28 28 112 3136
568	9389081 456 80551 122119 25.457509750098 38.186488625147 16 0 2 16 24
569	9389537 118 80551 122068 25.457509750098 38.186264625147 4 28 28 112 3136
570	9389655 118 81600 123364 25.722261681852 38.583392522778 4 28 28 112 3136
571	9389773 114 81600 123364 25.722261681852 38.583392522778 4 0 0 0 0
572	9389887 118 81601 123365 25.722261681852 38.583392522778 4 28 28 112 3136
573	9390005 456 81601 123416 25.722261681852 38.583616522778 16 0 2 16 24
574	9390461 118 81601 123365 25.722261681852 38.583392522778 4 28 28 112 3136
575	9390579 118 82091 123739 25.878926866092 38.818390299138 4 28 28 112 3136
576	9390697 114 82091 123739 25.878926866092 38.818390299138 4 0 0 0 0
577	9390811 118 82092 123740 25.878926866092 38.818390299138 4 28 28 112 3136
578	9390929 456 82092 123791 25.878926866092 38.818614299138 16 0 2 16 24
579	9391385 118 82092 123740 25.878926866092 38.818390299138 4 28 28 112 3136
580	9391503 118 82538 124406 25.917195552858 38.875793329287 4 28 28 112 3136
581	9391621 114 82538 124406 25.917195552858 38.875793329287 4 0 0 0 0
582	9391735 118 82539 124407 25.917195552858 38.875793329287 4 28 28 112 3136
583	9391853 456 82539 124458 25.917195552858 38.876017329287 16 0 2 16 24
584	9392309 118 82539 124407 25.917195552858 38.875793329287 4 28 28 112 3136
585	9392427 114 82842 125216 26.04118852998 39.06178279497 4 28 28 112 3136
586	9392541 110 82842 125216 26.04118852998 39.06178279497 4 0 0 0 0
587	9392651 114 82843 125217 26.04118852998 39.06178279497 4 28 28 112 3136
588	9392765 440 82843 125268 26.04118852998 39.06200679497 16 0 2 16 24
589	9393205 114 82843 125217 26.04118852998 39.06178279497 4 28 28 112 3136
590	9393319 118 83101 125865 26.087177939556 39.130766909334 4 28 28 112 3136
591	9393437 114 83101 125865 26.087177939556 39.130766909334 4 0 0 0 0
592	9393551 118 83102 125866 26.087177939556 39.130766909334 4 28 28 112 3136
593	9393669 456 83102 125917 26.087177939556 39.130990909334 16 0 2 16 24
594	9394125 118 83102 125866 26.087177939556 39.130766909334 4 28 28 112 3136
595	9394243 118 84122 126591 26.220025138416 39.330037707624 4 28 28 112 3136
596	9394361 114 84122 126591 26.220025138416 39.330037707624 4 0 0 0 0
597	9394475 118 84123 126592 26.220025138416 39.330037707624 4 28 28 112 3136
598	9394593 456 84123 126643 26.220025138416 39.330261707624 16 0 2 16 24
599	9395049 118 84123 126592 26.220025138416 39.330037707624 4 28 28 112 3136
600	9395167 118 84920 127606 26.407858601592 39.611787902388 4 28 28 112 3136
601	9395285 114 84920 127606 26.407858601592 39.611787902388 4 0 0 0 0
602	9395399 118 84921 127607 26.407858601592 39.611787902388 4 28 28 112 3136
603	9395517 456 84921 127658 26.407858601592 39.612011902388 16 0 2 16 24
604	9395973 118 84921 127607 26.407858601592 39.611787902388 4 28 28 112 3136
605	9396091 119 86384 129965 26.902451346378 40.353677019567 4 28 28 112 3136
606	9396210 115 86384 129965 26.902451346378 40.353677019567 4 0 0 0 0
607	9396325 119 86385 129966 26.902451346378 40.353677019567 4 28 28 112 3136
608	9396444 460 86385 130017 26.902451346378 40.353901019567 16 0 2 16 24
609	9396904 119 86385 129966 26.902451346378 40.353677019567 4 28 28 112 3136
610	9397023 115 87530 131163 27.31789619568 40.97684429352 4 28 28 112 3136
611	9397138 111 87530 131163 27.31789619568 40.97684429352 4 0 0 0 0
612	9397249 115 87531 131164 27.31789619568 40.97684429352 4 28 28 112 3136
613	9397364 444 87531 131215 27.31789619568 40.97706829352 16 0 2 16 24
614	9397808 115 87531 131164 27.31789619568 40.97684429352 4 28 28 112 3136
615	9397923 89 89415 118680 27.873399583224 37.164532777632 3 28 28 84 2352
616	9398012 86 89415 118680 27.873399583224 37.164532777632 3 0 0 0 0
617	9398098 89 89416 118681 27.873399583224 37.164532777632 3 28 28 84 2352
618	9398187 344 89416 118732 27.873399583224 37.164756777632 12 0 2 12 18
619	9398531 89 89416 118681 27.873399583224 37.164532777632 3 28 28 84 2352
620	9398620 89 89972 119719 28.074785491248 37.433047321664 3 28 28 84 2352
621	9398709 86 89972 119719 28.074785491248 37.433047321664 3 0 0 0 0
622	9398795 89 89973 119720 28.074785491248 37.433047321664 3 28 28 84 2352
623	9398884 344 89973 119771 28.074785491248 37.433271321664 12 0 2 12 18
624	9399228 89 89973 119720 28.074785491248 37.433047321664 3 28 28 84 2352
625	9399317 89 92988 125479 29.331727134354 39.108969512472 3 28 28 84 2352
626	9399406 86 92988 125479 29.331727134354 39.108969512472 3 0 0 0 0
627	9399492 89 92989 125480 29.331727134354 39.108969512472 3 28 28 84 2352
628	9399581 344 92989 125531 29.331727134354 39.109193512472 12 0 2 12 18
629	9399925 89 92989 125480 29.331727134354 39.108969512472 3 28 28 84 2352
630	9400014 89 93187 125671 29.342666753148 39.123555670864 3 28 28 84 2352
631	9400103 86 93187 125671 29.342666753148 39.123555670864 3 0 0 0 0
632	9400189 89 93188 125672 29.342666753148 39.123555670864 3 28 28 84 2352
633	9400278 344 93188 125723 29.342666753148 39.123779670864 12 0 2 12 18
634	9400622 89 93188 125672 29.342666753148 39.123555670864 3 28 28 84 2352
635	9400711 113 77925 127803 24.7669487057 39.62711792912 4 28 28 112 3136
636	9400824 109 77925 127803 24.7669487057 39.62711792912 4 0 0 0 0
637	9400933 113 77926 127804 24.7669487057 39.62711792912 4 28 28 112 3136
638	9401046 436 77926 127855 24.7669487057 39.62734192912 16 0 2 16 24
639	9401482 113 77926 127804 24.7669487057 39.62711792912 4 28 28 112 3136
640	9401595 117 78172 128042 24.76993479894 39.631895678304 4 28 28 112 3136
641	9401712 113 78172 128042 24.76993479894 39.631895678304 4 0 0 0 0
642	9401825 117 78173 128043 24.76993479894 39.631895678304 4 28 28 112 3136
643	9401942 452 78173 128094 24.76993479894 39.632119678304 16 0 2 16 24
644	9402394 117 78173 128043 24.76993479894 39.631895678304 4 28 28 112 3136
645	9402511 116 78941 128814 24.884900935275 39.81584149644 4 28 28 112 3136
646	9402627 112 78941 128814 24.884900935275 39.81584149644 4 0 0 0 0
647	9402739 116 78942 128815 24.884900935275 39.81584149644 4 28 28 112 3136
648	9402855 448 78942 128866 24.884900935275 39.81606549644 16 0 2 16 24
649	9403303 116 78942 128815 24.884900935275 39.81584149644 4 28 28 112 3136
654	9403419 28 123648 123648 38.66458460994 38.66458460994 1 3 3 3 9
668	9403447 29 107076 107076 33.586430814702 33.586430814702 1 1 1 1 1
694	9403476 28 89970 89970 28.074785491248 28.074785491248 1 4 4 4 16
vector 742 SensorNetwork.host[40].khopca "Cluster Duration" ETV
742	9403568 43 131241 131241 40.977068487563 40.977068487563 1 33.476916831293 33.476916831293 33.476916831293 1120.7039605293

