file 3156382 1539457834                                         
version 2
run KHOPCA_Network_Random-0-20181013-19:08:53-18264
attr configname KHOPCA_Network_Random
attr datetime 20181013-19:08:53
attr experiment KHOPCA_Network_Random
attr inifile omnetpp.ini
attr iterationvars ""
attr iterationvarsf ""
attr measurement ""
attr network khopca_test.simulations.SensorNetwork
attr processid 18264
attr repetition 0
attr replication #0
attr resultdir results
attr runnumber 0
attr seedset 0
param *.numHosts 10
param *.host*.wlan[*].typename "\"IdealWirelessNic\""
param *.host*.wlan[*].mac.useAck false
param *.host*.wlan[*].mac.fullDuplex false
param *.host*.wlan[*].radio.transmitter.communicationRange 300m
param *.host*.wlan[*].radio.receiver.ignoreInterference true
param *.host*.**.bitrate 1Mbps
param *.visualizer.interfaceTableVisualizer.displayInterfaceTables false
param *.visualizer.interfaceTableVisualizer.interfaceFilter "\"wlan*\""
param *.visualizer.interfaceTableVisualizer.format "\"%N\\n%n\""
param *.visualizer.interfaceTableVisualizer.displacementHint "\"left\""
param *.visualizer.sceneVisualizer.descriptionFigure "\"title\""
param *.visualizer.linkBreakVisualizer.displayLinkBreaks true
param *.visualizer.packetDropVisualizer.displayPacketDrops true
param *.visualizer.packetDropVisualizer.packetFilter "\"UDPData*\""
param *.visualizer.mediumVisualizer.signalPropagationAnimationSpeed 0.000001
param *.visualizer.mediumVisualizer.signalTransmissionAnimationSpeed 0.0005
param *.visualizer.mediumVisualizer.displayTransmissions true
param *.visualizer.mediumVisualizer.displayReceptions true
param *.visualizer.mediumVisualizer.displaySignals false
param *.configurator.config "xml(\"<config><interface hosts='**' address='10.0.0.x' netmask='255.255.255.0'/><autoroute metric='errorRate'/></config>\")"
param *.configurator.optimizeRoutes false
param *.host*.routingTable.netmaskRoutes "\"\""
param *.configurator.addStaticRoutes false
param *.host*.wlan[0].radio.displayCommunicationRange false
param *.host*.wlan[0].radio.energyConsumerType "\"StateBasedEpEnergyConsumer\""
param **.host*.energyStorageType "\"SimpleEpEnergyStorage\""
param **.host*.energyStorage.nominalCapacity 1J
param **.host[*].energyStorage.initialCapacity "uniform(index * 0.01J, this.nominalCapacity)"
param **.host[*].khopca.updateInterval 3
param **.host[*].mobilityType "\"RandomWPMobility\""
param **.host[*].mobility.speed "uniform(index * 0.2mps,20mps)"
param **.host[*].mobility.waypointProximity 100m
param **.host[*].mobility.waitTime uniform(0s,1s)
param **.constraintAreaMinX 100m
param **.constraintAreaMinY 50m
param **.constraintAreaMinZ 0m
param **.constraintAreaMaxX 500m
param **.constraintAreaMaxY 500m
param **.constraintAreaMaxZ 10m
param **.hasStatus true

vector 0 SensorNetwork "Cluster Size" ETV
vector 1 SensorNetwork "Number of Clusters" ETV
vector 2 SensorNetwork "Ratio of Clusterheads to Non-Clusterheads" ETV
vector 3 SensorNetwork "Ratio of Unconnected Nodes" ETV
vector 4 SensorNetwork.host[6].energyStorage residualEnergyCapacity:vector ETV
attr interpolationmode linear
attr source residualEnergyCapacityChanged
attr title "Residual energy capacity, vector"
vector 5 SensorNetwork.host[6].wlan[0].queue rcvdPk:vector(packetBytes) ETV
attr interpolationmode none
attr title "received packets, vector(packetBytes)"
vector 6 SensorNetwork.host[6].wlan[0].queue queueingTime:vector ETV
attr interpolationmode none
attr title "queueing time, vector"
vector 7 SensorNetwork.host[6].wlan[0].mac rcvdPkFromHL:vector(packetBytes) ETV
attr interpolationmode none
attr source packetReceivedFromUpper
attr title "packets received from higher layer, vector(packetBytes)"
vector 8 SensorNetwork.host[6].wlan[0].radio radioMode:vector ETV
attr interpolationmode sample-hold
attr source radioModeChanged
attr title "Radio mode, vector"
vector 9 SensorNetwork.host[6].wlan[0].radio.energyConsumer powerConsumption:vector ETV
attr interpolationmode sample-hold
attr source powerConsumptionChanged
attr title "Power consumption, vector"
vector 10 SensorNetwork.host[6].energyStorage powerConsumption:vector ETV
attr interpolationmode sample-hold
attr source powerConsumptionChanged
attr title "Power consumption, vector"
vector 11 SensorNetwork.host[6].wlan[0].radio receptionState:vector ETV
attr interpolationmode sample-hold
attr source receptionStateChanged
attr title "Radio reception state, vector"
vector 12 SensorNetwork.host[6].wlan[0].radio transmissionState:vector ETV
attr interpolationmode sample-hold
attr source transmissionStateChanged
attr title "Radio transmission state, vector"
vector 13 SensorNetwork.host[6].wlan[0].mac sentDownPk:vector(packetBytes) ETV
attr interpolationmode none
attr source packetSentToLower
attr title "packets sent to lower layer, vector(packetBytes)"
vector 14 SensorNetwork.host[3].wlan[0].radio receptionState:vector ETV
attr interpolationmode sample-hold
attr source receptionStateChanged
attr title "Radio reception state, vector"
vector 15 SensorNetwork.host[3].wlan[0].radio.energyConsumer powerConsumption:vector ETV
attr interpolationmode sample-hold
attr source powerConsumptionChanged
attr title "Power consumption, vector"
vector 16 SensorNetwork.host[3].energyStorage residualEnergyCapacity:vector ETV
attr interpolationmode linear
attr source residualEnergyCapacityChanged
attr title "Residual energy capacity, vector"
vector 17 SensorNetwork.host[3].energyStorage powerConsumption:vector ETV
attr interpolationmode sample-hold
attr source powerConsumptionChanged
attr title "Power consumption, vector"
vector 18 SensorNetwork.host[0].wlan[0].radio receptionState:vector ETV
attr interpolationmode sample-hold
attr source receptionStateChanged
attr title "Radio reception state, vector"
vector 19 SensorNetwork.host[0].wlan[0].radio.energyConsumer powerConsumption:vector ETV
attr interpolationmode sample-hold
attr source powerConsumptionChanged
attr title "Power consumption, vector"
vector 20 SensorNetwork.host[0].energyStorage residualEnergyCapacity:vector ETV
attr interpolationmode linear
attr source residualEnergyCapacityChanged
attr title "Residual energy capacity, vector"
vector 21 SensorNetwork.host[0].energyStorage powerConsumption:vector ETV
attr interpolationmode sample-hold
attr source powerConsumptionChanged
attr title "Power consumption, vector"
vector 22 SensorNetwork.host[5].wlan[0].radio receptionState:vector ETV
attr interpolationmode sample-hold
attr source receptionStateChanged
attr title "Radio reception state, vector"
vector 23 SensorNetwork.host[5].wlan[0].radio.energyConsumer powerConsumption:vector ETV
attr interpolationmode sample-hold
attr source powerConsumptionChanged
attr title "Power consumption, vector"
vector 24 SensorNetwork.host[5].energyStorage residualEnergyCapacity:vector ETV
attr interpolationmode linear
attr source residualEnergyCapacityChanged
attr title "Residual energy capacity, vector"
vector 25 SensorNetwork.host[5].energyStorage powerConsumption:vector ETV
attr interpolationmode sample-hold
attr source powerConsumptionChanged
attr title "Power consumption, vector"
vector 26 SensorNetwork.host[8].wlan[0].radio receptionState:vector ETV
attr interpolationmode sample-hold
attr source receptionStateChanged
attr title "Radio reception state, vector"
vector 27 SensorNetwork.host[8].wlan[0].radio.energyConsumer powerConsumption:vector ETV
attr interpolationmode sample-hold
attr source powerConsumptionChanged
attr title "Power consumption, vector"
vector 28 SensorNetwork.host[8].energyStorage residualEnergyCapacity:vector ETV
attr interpolationmode linear
attr source residualEnergyCapacityChanged
attr title "Residual energy capacity, vector"
vector 29 SensorNetwork.host[8].energyStorage powerConsumption:vector ETV
attr interpolationmode sample-hold
attr source powerConsumptionChanged
attr title "Power consumption, vector"
vector 30 SensorNetwork.host[7].wlan[0].radio receptionState:vector ETV
attr interpolationmode sample-hold
attr source receptionStateChanged
attr title "Radio reception state, vector"
vector 31 SensorNetwork.host[7].wlan[0].radio.energyConsumer powerConsumption:vector ETV
attr interpolationmode sample-hold
attr source powerConsumptionChanged
attr title "Power consumption, vector"
vector 32 SensorNetwork.host[7].energyStorage residualEnergyCapacity:vector ETV
attr interpolationmode linear
attr source residualEnergyCapacityChanged
attr title "Residual energy capacity, vector"
vector 33 SensorNetwork.host[7].energyStorage powerConsumption:vector ETV
attr interpolationmode sample-hold
attr source powerConsumptionChanged
attr title "Power consumption, vector"
vector 34 SensorNetwork.host[9].wlan[0].radio receptionState:vector ETV
attr interpolationmode sample-hold
attr source receptionStateChanged
attr title "Radio reception state, vector"
vector 35 SensorNetwork.host[9].wlan[0].radio.energyConsumer powerConsumption:vector ETV
attr interpolationmode sample-hold
attr source powerConsumptionChanged
attr title "Power consumption, vector"
vector 36 SensorNetwork.host[9].energyStorage residualEnergyCapacity:vector ETV
attr interpolationmode linear
attr source residualEnergyCapacityChanged
attr title "Residual energy capacity, vector"
vector 37 SensorNetwork.host[9].energyStorage powerConsumption:vector ETV
attr interpolationmode sample-hold
attr source powerConsumptionChanged
attr title "Power consumption, vector"
vector 38 SensorNetwork.host[1].wlan[0].radio receptionState:vector ETV
attr interpolationmode sample-hold
attr source receptionStateChanged
attr title "Radio reception state, vector"
vector 39 SensorNetwork.host[1].wlan[0].radio.energyConsumer powerConsumption:vector ETV
attr interpolationmode sample-hold
attr source powerConsumptionChanged
attr title "Power consumption, vector"
vector 40 SensorNetwork.host[1].energyStorage residualEnergyCapacity:vector ETV
attr interpolationmode linear
attr source residualEnergyCapacityChanged
attr title "Residual energy capacity, vector"
vector 41 SensorNetwork.host[1].energyStorage powerConsumption:vector ETV
attr interpolationmode sample-hold
attr source powerConsumptionChanged
attr title "Power consumption, vector"
vector 42 SensorNetwork.host[4].wlan[0].radio receptionState:vector ETV
attr interpolationmode sample-hold
attr source receptionStateChanged
attr title "Radio reception state, vector"
vector 43 SensorNetwork.host[4].wlan[0].radio.energyConsumer powerConsumption:vector ETV
attr interpolationmode sample-hold
attr source powerConsumptionChanged
attr title "Power consumption, vector"
vector 44 SensorNetwork.host[4].energyStorage residualEnergyCapacity:vector ETV
attr interpolationmode linear
attr source residualEnergyCapacityChanged
attr title "Residual energy capacity, vector"
vector 45 SensorNetwork.host[4].energyStorage powerConsumption:vector ETV
attr interpolationmode sample-hold
attr source powerConsumptionChanged
attr title "Power consumption, vector"
vector 46 SensorNetwork.host[2].wlan[0].radio receptionState:vector ETV
attr interpolationmode sample-hold
attr source receptionStateChanged
attr title "Radio reception state, vector"
vector 47 SensorNetwork.host[2].wlan[0].radio.energyConsumer powerConsumption:vector ETV
attr interpolationmode sample-hold
attr source powerConsumptionChanged
attr title "Power consumption, vector"
vector 48 SensorNetwork.host[2].energyStorage residualEnergyCapacity:vector ETV
attr interpolationmode linear
attr source residualEnergyCapacityChanged
attr title "Residual energy capacity, vector"
vector 49 SensorNetwork.host[2].energyStorage powerConsumption:vector ETV
attr interpolationmode sample-hold
attr source powerConsumptionChanged
attr title "Power consumption, vector"
vector 50 SensorNetwork.host[3].wlan[0].mac rcvdPkFromLL:vector(packetBytes) ETV
attr interpolationmode none
attr source packetReceivedFromLower
attr title "packets received from lower layer, vector(packetBytes)"
vector 51 SensorNetwork.host[3].wlan[0].mac passedUpPk:vector(packetBytes) ETV
attr interpolationmode none
attr source packetSentToUpper
attr title "packets passed to higher layer, vector(packetBytes)"
vector 52 SensorNetwork.host[0].wlan[0].mac rcvdPkFromLL:vector(packetBytes) ETV
attr interpolationmode none
attr source packetReceivedFromLower
attr title "packets received from lower layer, vector(packetBytes)"
vector 53 SensorNetwork.host[0].wlan[0].mac passedUpPk:vector(packetBytes) ETV
attr interpolationmode none
attr source packetSentToUpper
attr title "packets passed to higher layer, vector(packetBytes)"
vector 54 SensorNetwork.host[5].wlan[0].mac rcvdPkFromLL:vector(packetBytes) ETV
attr interpolationmode none
attr source packetReceivedFromLower
attr title "packets received from lower layer, vector(packetBytes)"
vector 55 SensorNetwork.host[5].wlan[0].mac passedUpPk:vector(packetBytes) ETV
attr interpolationmode none
attr source packetSentToUpper
attr title "packets passed to higher layer, vector(packetBytes)"
vector 56 SensorNetwork.host[8].wlan[0].mac rcvdPkFromLL:vector(packetBytes) ETV
attr interpolationmode none
attr source packetReceivedFromLower
attr title "packets received from lower layer, vector(packetBytes)"
vector 57 SensorNetwork.host[8].wlan[0].mac passedUpPk:vector(packetBytes) ETV
attr interpolationmode none
attr source packetSentToUpper
attr title "packets passed to higher layer, vector(packetBytes)"
vector 58 SensorNetwork.host[7].wlan[0].mac rcvdPkFromLL:vector(packetBytes) ETV
attr interpolationmode none
attr source packetReceivedFromLower
attr title "packets received from lower layer, vector(packetBytes)"
vector 59 SensorNetwork.host[7].wlan[0].mac passedUpPk:vector(packetBytes) ETV
attr interpolationmode none
attr source packetSentToUpper
attr title "packets passed to higher layer, vector(packetBytes)"
vector 60 SensorNetwork.host[9].wlan[0].mac rcvdPkFromLL:vector(packetBytes) ETV
attr interpolationmode none
attr source packetReceivedFromLower
attr title "packets received from lower layer, vector(packetBytes)"
vector 61 SensorNetwork.host[9].wlan[0].mac passedUpPk:vector(packetBytes) ETV
attr interpolationmode none
attr source packetSentToUpper
attr title "packets passed to higher layer, vector(packetBytes)"
vector 62 SensorNetwork.host[1].wlan[0].mac rcvdPkFromLL:vector(packetBytes) ETV
attr interpolationmode none
attr source packetReceivedFromLower
attr title "packets received from lower layer, vector(packetBytes)"
vector 63 SensorNetwork.host[1].wlan[0].mac passedUpPk:vector(packetBytes) ETV
attr interpolationmode none
attr source packetSentToUpper
attr title "packets passed to higher layer, vector(packetBytes)"
vector 64 SensorNetwork.host[4].wlan[0].mac rcvdPkFromLL:vector(packetBytes) ETV
attr interpolationmode none
attr source packetReceivedFromLower
attr title "packets received from lower layer, vector(packetBytes)"
vector 65 SensorNetwork.host[4].wlan[0].mac passedUpPk:vector(packetBytes) ETV
attr interpolationmode none
attr source packetSentToUpper
attr title "packets passed to higher layer, vector(packetBytes)"
vector 66 SensorNetwork.host[2].wlan[0].mac rcvdPkFromLL:vector(packetBytes) ETV
attr interpolationmode none
attr source packetReceivedFromLower
attr title "packets received from lower layer, vector(packetBytes)"
vector 67 SensorNetwork.host[2].wlan[0].mac passedUpPk:vector(packetBytes) ETV
attr interpolationmode none
attr source packetSentToUpper
attr title "packets passed to higher layer, vector(packetBytes)"
vector 68 SensorNetwork.host[7].wlan[0].queue rcvdPk:vector(packetBytes) ETV
attr interpolationmode none
attr title "received packets, vector(packetBytes)"
vector 69 SensorNetwork.host[7].wlan[0].queue queueingTime:vector ETV
attr interpolationmode none
attr title "queueing time, vector"
vector 70 SensorNetwork.host[7].wlan[0].mac rcvdPkFromHL:vector(packetBytes) ETV
attr interpolationmode none
attr source packetReceivedFromUpper
attr title "packets received from higher layer, vector(packetBytes)"
vector 71 SensorNetwork.host[7].wlan[0].radio radioMode:vector ETV
attr interpolationmode sample-hold
attr source radioModeChanged
attr title "Radio mode, vector"
vector 72 SensorNetwork.host[7].wlan[0].radio transmissionState:vector ETV
attr interpolationmode sample-hold
attr source transmissionStateChanged
attr title "Radio transmission state, vector"
vector 73 SensorNetwork.host[7].wlan[0].mac sentDownPk:vector(packetBytes) ETV
attr interpolationmode none
attr source packetSentToLower
attr title "packets sent to lower layer, vector(packetBytes)"
vector 74 SensorNetwork.host[6].wlan[0].mac rcvdPkFromLL:vector(packetBytes) ETV
attr interpolationmode none
attr source packetReceivedFromLower
attr title "packets received from lower layer, vector(packetBytes)"
vector 75 SensorNetwork.host[6].wlan[0].mac passedUpPk:vector(packetBytes) ETV
attr interpolationmode none
attr source packetSentToUpper
attr title "packets passed to higher layer, vector(packetBytes)"
vector 76 SensorNetwork.host[0].wlan[0].queue rcvdPk:vector(packetBytes) ETV
attr interpolationmode none
attr title "received packets, vector(packetBytes)"
vector 77 SensorNetwork.host[0].wlan[0].queue queueingTime:vector ETV
attr interpolationmode none
attr title "queueing time, vector"
vector 78 SensorNetwork.host[0].wlan[0].mac rcvdPkFromHL:vector(packetBytes) ETV
attr interpolationmode none
attr source packetReceivedFromUpper
attr title "packets received from higher layer, vector(packetBytes)"
vector 79 SensorNetwork.host[0].wlan[0].radio radioMode:vector ETV
attr interpolationmode sample-hold
attr source radioModeChanged
attr title "Radio mode, vector"
vector 80 SensorNetwork.host[0].wlan[0].radio transmissionState:vector ETV
attr interpolationmode sample-hold
attr source transmissionStateChanged
attr title "Radio transmission state, vector"
vector 81 SensorNetwork.host[0].wlan[0].mac sentDownPk:vector(packetBytes) ETV
attr interpolationmode none
attr source packetSentToLower
attr title "packets sent to lower layer, vector(packetBytes)"
vector 82 SensorNetwork.host[9].wlan[0].queue rcvdPk:vector(packetBytes) ETV
attr interpolationmode none
attr title "received packets, vector(packetBytes)"
vector 83 SensorNetwork.host[9].wlan[0].queue queueingTime:vector ETV
attr interpolationmode none
attr title "queueing time, vector"
vector 84 SensorNetwork.host[9].wlan[0].mac rcvdPkFromHL:vector(packetBytes) ETV
attr interpolationmode none
attr source packetReceivedFromUpper
attr title "packets received from higher layer, vector(packetBytes)"
vector 85 SensorNetwork.host[9].wlan[0].radio radioMode:vector ETV
attr interpolationmode sample-hold
attr source radioModeChanged
attr title "Radio mode, vector"
vector 86 SensorNetwork.host[9].wlan[0].radio transmissionState:vector ETV
attr interpolationmode sample-hold
attr source transmissionStateChanged
attr title "Radio transmission state, vector"
vector 87 SensorNetwork.host[9].wlan[0].mac sentDownPk:vector(packetBytes) ETV
attr interpolationmode none
attr source packetSentToLower
attr title "packets sent to lower layer, vector(packetBytes)"
vector 88 SensorNetwork.host[4].wlan[0].queue rcvdPk:vector(packetBytes) ETV
attr interpolationmode none
attr title "received packets, vector(packetBytes)"
vector 89 SensorNetwork.host[4].wlan[0].queue queueingTime:vector ETV
attr interpolationmode none
attr title "queueing time, vector"
vector 90 SensorNetwork.host[4].wlan[0].mac rcvdPkFromHL:vector(packetBytes) ETV
attr interpolationmode none
attr source packetReceivedFromUpper
attr title "packets received from higher layer, vector(packetBytes)"
vector 91 SensorNetwork.host[4].wlan[0].radio radioMode:vector ETV
attr interpolationmode sample-hold
attr source radioModeChanged
attr title "Radio mode, vector"
vector 92 SensorNetwork.host[4].wlan[0].radio transmissionState:vector ETV
attr interpolationmode sample-hold
attr source transmissionStateChanged
attr title "Radio transmission state, vector"
vector 93 SensorNetwork.host[4].wlan[0].mac sentDownPk:vector(packetBytes) ETV
attr interpolationmode none
attr source packetSentToLower
attr title "packets sent to lower layer, vector(packetBytes)"
vector 94 SensorNetwork.host[5].wlan[0].queue rcvdPk:vector(packetBytes) ETV
attr interpolationmode none
attr title "received packets, vector(packetBytes)"
vector 95 SensorNetwork.host[5].wlan[0].queue queueingTime:vector ETV
attr interpolationmode none
attr title "queueing time, vector"
vector 96 SensorNetwork.host[5].wlan[0].mac rcvdPkFromHL:vector(packetBytes) ETV
attr interpolationmode none
attr source packetReceivedFromUpper
attr title "packets received from higher layer, vector(packetBytes)"
vector 97 SensorNetwork.host[5].wlan[0].radio radioMode:vector ETV
attr interpolationmode sample-hold
attr source radioModeChanged
attr title "Radio mode, vector"
vector 98 SensorNetwork.host[5].wlan[0].radio transmissionState:vector ETV
attr interpolationmode sample-hold
attr source transmissionStateChanged
attr title "Radio transmission state, vector"
vector 99 SensorNetwork.host[5].wlan[0].mac sentDownPk:vector(packetBytes) ETV
attr interpolationmode none
attr source packetSentToLower
attr title "packets sent to lower layer, vector(packetBytes)"
vector 100 SensorNetwork.host[1].wlan[0].queue rcvdPk:vector(packetBytes) ETV
attr interpolationmode none
attr title "received packets, vector(packetBytes)"
vector 101 SensorNetwork.host[1].wlan[0].queue queueingTime:vector ETV
attr interpolationmode none
attr title "queueing time, vector"
vector 102 SensorNetwork.host[1].wlan[0].mac rcvdPkFromHL:vector(packetBytes) ETV
attr interpolationmode none
attr source packetReceivedFromUpper
attr title "packets received from higher layer, vector(packetBytes)"
vector 103 SensorNetwork.host[1].wlan[0].radio radioMode:vector ETV
attr interpolationmode sample-hold
attr source radioModeChanged
attr title "Radio mode, vector"
vector 104 SensorNetwork.host[1].wlan[0].radio transmissionState:vector ETV
attr interpolationmode sample-hold
attr source transmissionStateChanged
attr title "Radio transmission state, vector"
vector 105 SensorNetwork.host[1].wlan[0].mac sentDownPk:vector(packetBytes) ETV
attr interpolationmode none
attr source packetSentToLower
attr title "packets sent to lower layer, vector(packetBytes)"
vector 106 SensorNetwork.host[2].wlan[0].queue rcvdPk:vector(packetBytes) ETV
attr interpolationmode none
attr title "received packets, vector(packetBytes)"
vector 107 SensorNetwork.host[2].wlan[0].queue queueingTime:vector ETV
attr interpolationmode none
attr title "queueing time, vector"
vector 108 SensorNetwork.host[2].wlan[0].mac rcvdPkFromHL:vector(packetBytes) ETV
attr interpolationmode none
attr source packetReceivedFromUpper
attr title "packets received from higher layer, vector(packetBytes)"
vector 109 SensorNetwork.host[2].wlan[0].radio radioMode:vector ETV
attr interpolationmode sample-hold
attr source radioModeChanged
attr title "Radio mode, vector"
vector 110 SensorNetwork.host[2].wlan[0].radio transmissionState:vector ETV
attr interpolationmode sample-hold
attr source transmissionStateChanged
attr title "Radio transmission state, vector"
vector 111 SensorNetwork.host[2].wlan[0].mac sentDownPk:vector(packetBytes) ETV
attr interpolationmode none
attr source packetSentToLower
attr title "packets sent to lower layer, vector(packetBytes)"
vector 112 SensorNetwork.host[8].wlan[0].queue rcvdPk:vector(packetBytes) ETV
attr interpolationmode none
attr title "received packets, vector(packetBytes)"
vector 113 SensorNetwork.host[8].wlan[0].queue queueingTime:vector ETV
attr interpolationmode none
attr title "queueing time, vector"
vector 114 SensorNetwork.host[8].wlan[0].mac rcvdPkFromHL:vector(packetBytes) ETV
attr interpolationmode none
attr source packetReceivedFromUpper
attr title "packets received from higher layer, vector(packetBytes)"
vector 115 SensorNetwork.host[8].wlan[0].radio radioMode:vector ETV
attr interpolationmode sample-hold
attr source radioModeChanged
attr title "Radio mode, vector"
vector 116 SensorNetwork.host[8].wlan[0].radio transmissionState:vector ETV
attr interpolationmode sample-hold
attr source transmissionStateChanged
attr title "Radio transmission state, vector"
vector 117 SensorNetwork.host[8].wlan[0].mac sentDownPk:vector(packetBytes) ETV
attr interpolationmode none
attr source packetSentToLower
attr title "packets sent to lower layer, vector(packetBytes)"
vector 118 SensorNetwork.host[3].wlan[0].queue rcvdPk:vector(packetBytes) ETV
attr interpolationmode none
attr title "received packets, vector(packetBytes)"
vector 119 SensorNetwork.host[3].wlan[0].queue queueingTime:vector ETV
attr interpolationmode none
attr title "queueing time, vector"
vector 120 SensorNetwork.host[3].wlan[0].mac rcvdPkFromHL:vector(packetBytes) ETV
attr interpolationmode none
attr source packetReceivedFromUpper
attr title "packets received from higher layer, vector(packetBytes)"
vector 121 SensorNetwork.host[3].wlan[0].radio radioMode:vector ETV
attr interpolationmode sample-hold
attr source radioModeChanged
attr title "Radio mode, vector"
vector 122 SensorNetwork.host[3].wlan[0].radio transmissionState:vector ETV
attr interpolationmode sample-hold
attr source transmissionStateChanged
attr title "Radio transmission state, vector"
vector 123 SensorNetwork.host[3].wlan[0].mac sentDownPk:vector(packetBytes) ETV
attr interpolationmode none
attr source packetSentToLower
attr title "packets sent to lower layer, vector(packetBytes)"
vector 124 SensorNetwork "Role Changes" ETV
0	25374 496 4267 44454 20 200 37 4 4 148 592
1	25870 496 4267 44454 20 200 37 1 1 37 37
2	26366 570 4267 44454 20 200 37 0.1 0.1 3.7 0.37
3	26936 496 4267 44454 20 200 37 0 0 0 0
4	27432 36939 4306 45217 20.336059723165 203.36082123165 907 0.13629516691957 0.50405156993654 290.51497138818 103.35104030978
5	64371 1256 4308 45205 20.336059723165 203.36059723165 46 28 28 1288 36064
6	65627 1210 4308 45205 20.336059723165 203.36059723165 46 0 0 0 0
7	66837 1256 4309 45206 20.336059723165 203.36059723165 46 28 28 1288 36064
8	68093 2420 4309 45217 20.336059723165 203.36082123165 92 2 3 230 598
9	70513 58339 4309 45217 20.336059723165 203.36082123165 2016 0 0.1 10.506 0.502932
10	128852 60355 4309 45217 20.336059723165 203.36082123165 2016 0 0.1 10.506 0.502932
11	189207 23764 4309 45217 20.336059723165 203.36082123165 870 0 3 1602 3936
12	212971 5024 4309 45217 20.336059723165 203.36082123165 184 0 2 184 276
13	217995 1302 4309 45206 20.336059723165 203.36059723165 46 28 28 1288 36064
14	219297 23596 4311 45234 20.336059862455 203.360821682905 864 0 3 1617 3987
15	242893 58393 4311 45234 20.336059862455 203.360821682905 1950 0 0.1 9.5999999999999 0.4134
16	301286 37567 4311 45234 20.336059862455 203.360821682905 901 0.43586454872427 0.80343413636517 555.56062267168 352.54344396139
17	338853 58393 4311 45234 20.336059862455 203.360821682905 1950 0 0.1 9.5999999999999 0.4134
18	397246 23132 4312 45230 20.336059890299 203.360821680786 846 0 3 1563 3843
19	420378 58440 4312 45230 20.336059890299 203.360821680786 1950 0 0.1 10.05 0.4719
20	478818 36862 4312 45271 20.336059890299 203.516351152128 883 0.14 0.50798547852366 281.94782699379 99.777180393795
21	515680 58440 4312 45230 20.336059890299 203.360821680786 1950 0 0.1 10.05 0.4719
22	574120 22296 4313 45222 20.336059983768 203.360821399143 816 0 3 1512 3720
23	596416 56048 4313 45222 20.336059983768 203.360821399143 1872 0 0.1 9.5519999999999 0.440544
24	652464 35566 4313 45222 20.336059983768 203.360821399143 853 0.4495305370512 0.81711759588195 538.46791823434 349.75246616409
25	688030 56048 4313 45222 20.336059983768 203.360821399143 1872 0 0.1 9.5519999999999 0.440544
26	744078 23654 4314 45238 20.336060197955 203.360821702838 866 0 3 1621 3997
27	767732 58544 4314 45238 20.336060197955 203.360821702838 1954 0 0.1 9.6139999999999 0.413508
28	826276 37805 4314 45238 20.336060197955 203.360821702838 903 0.015260769382792 0.38283214839256 179.66888758033 46.065195549796
29	864081 58544 4314 45238 20.336060197955 203.360821702838 1954 0 0.1 9.6139999999999 0.413508
30	922625 23084 4315 45246 20.336060227644 203.360821752234 846 0 3 1557 3825
31	945709 58654 4315 45246 20.336060227644 203.360821752234 1962 0 0.1 10.242 0.491724
32	1004363 36806 4315 45246 20.336060227644 203.360821752234 883 0.438708973753 0.80642371280218 549.44980971455 351.85285591137
33	1041169 58654 4315 45246 20.336060227644 203.360821752234 1962 0 0.1 10.242 0.491724
34	1099823 22204 4316 45226 20.336060233026 203.360821424619 814 0 3 1454 3548
35	1122027 58991 4316 45226 20.336060233026 203.360821424619 1976 0 0.1 11.266 0.618852
36	1181018 35435 4316 45226 20.336060233026 203.360821424619 851 0.21474362154823 0.58269176793142 342.23551924364 147.411765782
37	1216453 58991 4316 45226 20.336060233026 203.360821424619 1976 0 0.1 11.266 0.618852
38	1275444 22138 4317 45250 20.336060289566 203.360821997218 812 0 3 1483 3637
39	1297582 56843 4317 45250 20.336060289566 203.360821997218 1906 0 0.1 10.196 0.509712
40	1354425 35324 4317 45250 20.336060289566 203.360821997218 849 0.18428438039447 0.55200897580977 312.70348902634 124.9808096999
41	1389749 56843 4317 45250 20.336060289566 203.360821997218 1906 0 0.1 10.196 0.509712
42	1446592 23414 4318 45218 20.336060449206 203.36082131748 858 0 3 1572 3858
43	1470006 59815 4318 45218 20.336060449206 203.36082131748 2004 0 0.1 10.614 0.522108
44	1529821 37314 4318 45218 20.336060449206 203.36082131748 895 0.19412742374303 0.56191339347958 336.06642081724 136.2187816247
45	1567135 59815 4318 45218 20.336060449206 203.36082131748 2004 0 0.1 10.614 0.522108
46	1626950 20859 4319 45242 20.336060598576 203.360821745415 762 0 3 1410 3468
47	1647809 52537 4319 45242 20.336060598576 203.360821745415 1752 0 0.1 8.9819999999999 0.417804
48	1700346 33320 4319 45242 20.336060598576 203.360821745415 799 0.30687552948076 0.67437388377444 388.63544466437 197.63192484334
49	1733666 52537 4319 45242 20.336060598576 203.360821745415 1752 0 0.1 8.9819999999999 0.417804
50	1786203 11186 4322 45235 20.336283862455 203.360821682905 395 28 28 11060 309680
51	1797389 11186 4322 45235 20.336283862455 203.360821682905 395 28 28 11060 309680
52	1808575 10771 4326 45231 20.336283890299 203.360821680786 380 28 28 10640 297920
53	1819346 10771 4326 45231 20.336283890299 203.360821680786 380 28 28 10640 297920
54	1830117 10428 4330 45223 20.336283983768 203.360821399143 368 28 28 10304 288512
55	1840545 10428 4330 45223 20.336283983768 203.360821399143 368 28 28 10304 288512
56	1850973 11212 4334 45239 20.336284197955 203.360821702838 396 28 28 11088 310464
57	1862185 11212 4334 45239 20.336284197955 203.360821702838 396 28 28 11088 310464
58	1873397 10697 4338 45247 20.336284227644 203.360821752234 378 28 28 10584 296352
59	1884094 10697 4338 45247 20.336284227644 203.360821752234 378 28 28 10584 296352
60	1894791 9873 4342 45227 20.336284233026 203.360821424619 349 28 28 9772 273616
61	1904664 9873 4342 45227 20.336284233026 203.360821424619 349 28 28 9772 273616
62	1914537 10164 4346 45251 20.336284289566 203.360821997218 359 28 28 10052 281456
63	1924701 10164 4346 45251 20.336284289566 203.360821997218 359 28 28 10052 281456
64	1934865 10798 4350 45219 20.336284449206 203.36082131748 381 28 28 10668 298704
65	1945663 10798 4350 45219 20.336284449206 203.36082131748 381 28 28 10668 298704
66	1956461 9738 4354 45243 20.336284598576 203.360821745415 343 28 28 9604 268912
67	1966199 9738 4354 45243 20.336284598576 203.360821745415 343 28 28 9604 268912
68	1975937 1268 4399 45128 20.72364118118 203.091683575564 45 28 28 1260 35280
69	1977205 1223 4399 45128 20.72364118118 203.091683575564 45 0 0 0 0
70	1978428 1268 4400 45129 20.72364118118 203.091683575564 45 28 28 1260 35280
71	1979696 2446 4400 45140 20.72364118118 203.091907575564 90 2 3 225 585
72	1982142 4892 4400 45140 20.72364118118 203.091907575564 180 0 2 180 270
73	1987034 1268 4400 45129 20.72364118118 203.091683575564 45 28 28 1260 35280
74	1988302 11015 4421 45158 20.723865694781 203.09190809504 389 28 28 10892 304976
75	1999317 11015 4421 45158 20.723865694781 203.09190809504 389 28 28 10892 304976
76	2010332 1218 4521 44818 21.494351739415 202.046906350501 43 28 28 1204 33712
77	2011550 1175 4521 44818 21.494351739415 202.046906350501 43 0 0 0 0
78	2012725 1218 4522 44819 21.494351739415 202.046906350501 43 28 28 1204 33712
79	2013943 2350 4522 44830 21.494351739415 202.047130350501 86 2 3 215 559
80	2016293 4700 4522 44830 21.494351739415 202.047130350501 172 0 2 172 258
81	2020993 1218 4522 44819 21.494351739415 202.046906350501 43 28 28 1204 33712
82	2022211 1636 4643 44993 22.124559773736 202.281689359872 58 28 28 1624 45472
83	2023847 1578 4643 44993 22.124559773736 202.281689359872 58 0 0 0 0
84	2025425 1636 4644 44994 22.124559773736 202.281689359872 58 28 28 1624 45472
85	2027061 3156 4644 45005 22.124559773736 202.281913359872 116 2 3 290 754
86	2030217 6312 4644 45005 22.124559773736 202.281913359872 232 0 2 232 348
87	2036529 1636 4644 44994 22.124559773736 202.281689359872 58 28 28 1624 45472
88	2038165 1338 4751 44486 22.67528527329 200.298353247395 48 28 28 1344 37632
89	2039503 1290 4751 44486 22.67528527329 200.298353247395 48 0 0 0 0
90	2040793 1338 4752 44487 22.67528527329 200.298353247395 48 28 28 1344 37632
91	2042131 2580 4752 44498 22.67528527329 200.298577247395 96 2 3 240 624
92	2044711 5160 4752 44498 22.67528527329 200.298577247395 192 0 2 192 288
93	2049871 1338 4752 44487 22.67528527329 200.298353247395 48 28 28 1344 37632
94	2051209 1128 4828 44746 22.93807783094 201.855084912272 40 28 28 1120 31360
95	2052337 1088 4828 44746 22.93807783094 201.855084912272 40 0 0 0 0
96	2053425 1128 4829 44747 22.93807783094 201.855084912272 40 28 28 1120 31360
97	2054553 2176 4829 44758 22.93807783094 201.855308912272 80 2 3 200 520
98	2056729 4352 4829 44758 22.93807783094 201.855308912272 160 0 2 160 240
99	2061081 1128 4829 44747 22.93807783094 201.855084912272 40 28 28 1120 31360
100	2062209 1358 4915 44926 23.31853605453 202.09397913926 47 28 28 1316 36848
101	2063567 1311 4915 44926 23.31853605453 202.09397913926 47 0 0 0 0
102	2064878 1358 4916 44927 23.31853605453 202.09397913926 47 28 28 1316 36848
103	2066236 2622 4916 44938 23.31853605453 202.09420313926 94 2 3 235 611
104	2068858 5244 4916 44938 23.31853605453 202.09420313926 188 0 2 188 282
105	2074102 1358 4916 44927 23.31853605453 202.09397913926 47 28 28 1316 36848
106	2075460 1111 5028 44613 23.92855271739 200.999842826076 38 28 28 1064 29792
107	2076571 1073 5028 44613 23.92855271739 200.999842826076 38 0 0 0 0
108	2077644 1111 5029 44614 23.92855271739 200.999842826076 38 28 28 1064 29792
109	2078755 2146 5029 44625 23.92855271739 201.000066826076 76 2 3 190 494
110	2080901 4292 5029 44625 23.92855271739 201.000066826076 152 0 2 152 228
111	2085193 1111 5029 44614 23.92855271739 200.999842826076 38 28 28 1064 29792
112	2086304 1085 5101 44195 24.263406668955 198.959934685431 37 28 28 1036 29008
113	2087389 1048 5101 44195 24.263406668955 198.959934685431 37 0 0 0 0
114	2088437 1085 5102 44196 24.263406668955 198.959934685431 37 28 28 1036 29008
115	2089522 2096 5102 44207 24.263406668955 198.960158685431 74 2 3 185 481
116	2091618 4192 5102 44207 24.263406668955 198.960158685431 148 0 2 148 222
117	2095810 1085 5102 44196 24.263406668955 198.959934685431 37 28 28 1036 29008
118	2096895 1081 5245 44869 24.64026136417 202.050143186194 37 28 28 1036 29008
119	2097976 1044 5245 44869 24.64026136417 202.050143186194 37 0 0 0 0
120	2099020 1081 5246 44870 24.64026136417 202.050143186194 37 28 28 1036 29008
121	2100101 2088 5246 44881 24.64026136417 202.050367186194 74 2 3 185 481
122	2102189 4176 5246 44881 24.64026136417 202.050367186194 148 0 2 148 222
123	2106365 1081 5246 44870 24.64026136417 202.050143186194 37 28 28 1036 29008
124	2107446 499 5406 31530 25.285211169984 142.22931283116 18 3 4 63 225
0	2107945 322 45525 66042 205 315 23 4 4 92 368
1	2108267 322 45525 66042 205 315 23 1 7 65 241
2	2108589 368 45525 66042 205 315 23 0.1 0.1 2.3 0.23
3	2108957 362 45525 66042 205 315 23 0 0.6 4.2 1.34
4	2109319 13379 45309 66350 203.812616491075 317.242531681374 324 0 0.13539157640072 21.238652302242 1.9306209348396
5	2122698 447 46129 58656 207.427809176283 268.435988345778 16 28 28 448 12544
6	2123145 431 46129 58656 207.427809176283 268.435988345778 16 0 0 0 0
7	2123576 447 46130 58657 207.427809176283 268.435988345778 16 28 28 448 12544
8	2124023 889 46130 59225 207.427809176283 271.213620691436 33 0 3 80 208
9	2124912 20511 45309 59225 203.812616491075 271.213620691436 694 0 0.1 3.622 0.174684
10	2145423 21205 45309 59225 203.812616491075 271.213620691436 694 0 0.1 3.622 0.174684
11	2166628 8354 45309 59225 203.812616491075 271.213620691436 299 0 3 548 1346
12	2174982 1788 46130 58668 207.427809176283 268.436212345778 64 0 2 64 96
13	2176770 463 46130 58657 207.427809176283 268.435988345778 16 28 28 448 12544
14	2177233 11780 45314 66273 203.812616900247 316.545698618512 422 0 3 775 1903
15	2189013 29968 45314 66273 203.812616900247 316.545698618512 982 0 0.1 5.1619999999999 0.250764
16	2218981 18738 45314 66273 203.812616900247 316.545698618512 445 0.20865300285306 0.43496095828959 149.11204037333 51.652221162723
17	2237719 29968 45314 66273 203.812616900247 316.545698618512 982 0 0.1 5.1619999999999 0.250764
18	2267687 8502 45307 59609 203.812616210616 273.218879152128 305 0 3 560 1376
19	2276189 21528 45307 59609 203.812616210616 273.218879152128 706 0 0.1 3.664 0.175008
20	2297717 13939 45307 66443 203.812616210616 318.116405743342 329 0 0.13940746988302 22.277381403138 2.0832791233945
21	2311656 21528 45307 59609 203.812616210616 273.218879152128 706 0 0.1 3.664 0.175008
22	2333184 10610 45311 66272 203.812616651124 316.545698066972 380 0 3 685 1675
23	2343794 27749 45311 66272 203.812616651124 316.545698066972 910 0 0.1 5.0599999999999 0.26832
24	2371543 16987 45311 66401 203.812616651124 317.703849924744 403 0.22 0.44862694654724 141.51369324225 51.112460232284
25	2388530 27749 45311 66272 203.812616651124 316.545698066972 910 0 0.1 5.0599999999999 0.26832
26	2416279 924 45305 46842 203.812616019222 210.956710394234 33 0 3 58 142
27	2417203 2382 45305 46842 203.812616019222 210.956710394234 78 0 0.1 0.416 0.021552
28	2419585 2081 45302 66116 203.812616019222 315.424286696415 56 0 0.014357180750024 0.24925645379912 0.002405490848018
29	2421666 2382 45305 46842 203.812616019222 210.956710394234 78 0 0.1 0.416 0.021552
30	2424048 11092 45313 66180 203.812616893757 315.857120612528 398 0 3 715 1747
31	2435140 29158 45313 66180 203.812616893757 315.857120612528 958 0 0.1 5.3779999999999 0.289116
32	2464298 17731 45313 66354 203.812616893757 317.264844628733 421 0.21 0.43780538346995 141.03178484534 48.807494423886
33	2482029 29158 45313 66180 203.812616893757 315.857120612528 958 0 0.1 5.3779999999999 0.289116
34	2511187 11232 45312 65421 203.812616695738 310.209816198734 403 0 3 702 1704
35	2522419 30713 45312 65421 203.812616695738 310.209816198734 1010 0 0.1 6.0779999999999 0.358716
36	2553132 18055 45312 66207 203.812616695738 316.0651396248 426 0 0.21384003100599 48.666623900365 7.0629896743537
37	2571187 30713 45312 65421 203.812616695738 310.209816198734 1010 0 0.1 6.0779999999999 0.358716
38	2601900 9995 45315 63312 203.812616962591 295.11078819444 359 0 3 647 1583
39	2611895 26004 45315 63312 203.812616962591 295.11078819444 856 0 0.1 4.7139999999999 0.247308
40	2637899 16166 45315 65996 203.812616962591 314.800236736155 383 0 0.18338079046372 35.472759231821 4.3513357848133
41	2654065 26004 45315 63312 203.812616962591 295.11078819444 856 0 0.1 4.7139999999999 0.247308
42	2680069 10950 45308 64009 203.812616410942 299.986837188995 393 0 3 706 1726
43	2691019 28626 45308 64009 203.812616410942 299.986837188995 942 0 0.1 5.2399999999999 0.27888
44	2719645 17650 45308 66374 203.812616410942 317.45399382606 417 0 0.19322383355611 42.290683354104 5.5519728016881
45	2737295 28626 45308 64009 203.812616410942 299.986837188995 942 0 0.1 5.2399999999999 0.27888
46	2765921 9860 45310 66175 203.812616629737 315.857119869548 354 0 3 636 1554
47	2775781 25927 45310 66175 203.812616629737 315.857119869548 852 0 0.1 4.7819999999999 0.257004
48	2801708 15860 45310 66241 203.812616629737 316.398074485795 377 0.08 0.30597193971212 75.557722668587 16.503706705627
49	2817568 25927 45310 66175 203.812616629737 315.857119869548 852 0 0.1 4.7819999999999 0.257004
50	2843495 5439 45346 66274 203.812840900247 316.545698618512 188 28 28 5264 147392
51	2848934 5439 45346 66274 203.812840900247 316.545698618512 188 28 28 5264 147392
52	2854373 3927 45318 59550 203.812840210616 272.785725701481 136 28 28 3808 106624
53	2858300 3927 45318 59550 203.812840210616 272.785725701481 136 28 28 3808 106624
54	2862227 4776 45334 66099 203.812840651124 315.395569993255 165 28 28 4620 129360
55	2867003 4776 45334 66099 203.812840651124 315.395569993255 165 28 28 4620 129360
56	2871779 406 45411 46785 204.077791851518 210.644871468718 14 28 28 392 10976
57	2872185 406 45411 46785 204.077791851518 210.644871468718 14 28 28 392 10976
58	2872591 4970 45342 66181 203.812840893757 315.857120612528 172 28 28 4816 134848
59	2877561 4970 45342 66181 203.812840893757 315.857120612528 172 28 28 4816 134848
60	2882531 4825 45338 65086 203.812840695738 307.370467788334 167 28 28 4676 130928
61	2887356 4825 45338 65086 203.812840695738 307.370467788334 167 28 28 4676 130928
62	2892181 4508 45350 63261 203.812840962591 294.778933015696 156 28 28 4368 122304
63	2896689 4508 45350 63261 203.812840962591 294.778933015696 156 28 28 4368 122304
64	2901197 4917 45322 63805 203.812840410942 298.420657485981 170 28 28 4760 133280
65	2906114 4917 45322 63805 203.812840410942 298.420657485981 170 28 28 4760 133280
66	2911031 4417 45330 66103 203.812840629737 315.395570172541 153 28 28 4284 119952
67	2915448 4417 45330 66103 203.812840629737 315.395570172541 153 28 28 4284 119952
68	2919865 775 46061 66020 207.2364118118 314.999345953936 27 28 28 756 21168
69	2920640 748 46061 66020 207.2364118118 314.999345953936 27 0 0 0 0
70	2921388 775 46062 66021 207.2364118118 314.999345953936 27 28 28 756 21168
71	2922163 1496 46062 66032 207.2364118118 314.999569953936 54 2 3 135 351
72	2923659 2992 46062 66032 207.2364118118 314.999569953936 108 0 2 108 162
73	2926651 775 46062 66021 207.2364118118 314.999345953936 27 28 28 756 21168
74	2927426 3849 45326 59187 203.812840491075 271.04309942048 133 28 28 3724 104272
75	2931275 3849 45326 59187 203.812840491075 271.04309942048 133 28 28 3724 104272
76	2935124 462 45814 59091 206.345776698384 270.828831916629 16 28 28 448 12544
77	2935586 446 45814 59091 206.345776698384 270.828831916629 16 0 0 0 0
78	2936032 462 45815 59092 206.345776698384 270.828831916629 16 28 28 448 12544
79	2936494 920 45815 59609 206.345776698384 273.218879152128 33 0 3 80 208
80	2937414 1784 45815 59103 206.345776698384 270.829055916629 64 0 2 64 96
81	2939198 462 45815 59092 206.345776698384 270.828831916629 16 28 28 448 12544
82	2939660 978 45572 65341 205.44234075612 309.743836832304 34 28 28 952 26656
83	2940638 944 45572 65341 205.44234075612 309.743836832304 34 0 0 0 0
84	2941582 978 45573 65342 205.44234075612 309.743836832304 34 28 28 952 26656
85	2942560 1916 45573 65421 205.44234075612 310.209816198734 69 0 3 170 442
86	2944476 3776 45573 65353 205.44234075612 309.744060832304 136 0 2 136 204
87	2948252 978 45573 65342 205.44234075612 309.743836832304 34 28 28 952 26656
88	2949230 740 45381 63829 204.07756745961 298.557922764985 26 28 28 728 20384
89	2949970 714 45381 63829 204.07756745961 298.557922764985 26 0 0 0 0
90	2950684 740 45382 63830 204.07756745961 298.557922764985 26 28 28 728 20384
91	2951424 1456 45382 64009 204.07756745961 299.986837188995 53 0 3 130 338
92	2952880 2856 45382 63841 204.07756745961 298.558146764985 104 0 2 104 156
93	2955736 740 45382 63830 204.07756745961 298.557922764985 26 28 28 728 20384
94	2956476 719 45875 66260 206.44270047846 316.545474066972 25 28 28 700 19600
95	2957195 694 45875 66260 206.44270047846 316.545474066972 25 0 0 0 0
96	2957889 719 45876 66261 206.44270047846 316.545474066972 25 28 28 700 19600
97	2958608 1388 45876 66272 206.44270047846 316.545698066972 50 2 3 125 325
98	2959996 2776 45876 66272 206.44270047846 316.545698066972 100 0 2 100 150
99	2962772 719 45876 66261 206.44270047846 316.545474066972 25 28 28 700 19600
100	2963491 678 45726 62712 205.980401815015 291.481700681625 23 28 28 644 18032
101	2964169 655 45726 62712 205.980401815015 291.481700681625 23 0 0 0 0
102	2964824 678 45727 62713 205.980401815015 291.481700681625 23 28 28 644 18032
103	2965502 1338 45727 63312 205.980401815015 295.11078819444 47 0 3 115 299
104	2966840 2620 45727 62724 205.980401815015 291.481924681625 92 0 2 92 138
105	2969460 678 45727 62713 205.980401815015 291.481700681625 23 28 28 644 18032
106	2970138 714 45660 66163 205.785553369554 315.856895869548 24 28 28 672 18816
107	2970852 690 45660 66163 205.785553369554 315.856895869548 24 0 0 0 0
108	2971542 714 45661 66164 205.785553369554 315.856895869548 24 28 28 672 18816
109	2972256 1380 45661 66175 205.785553369554 315.857119869548 48 2 3 120 312
110	2973636 2760 45661 66175 205.785553369554 315.857119869548 96 0 2 96 144
111	2976396 714 45661 66164 205.785553369554 315.856895869548 24 28 28 672 18816
112	2977110 60 45304 46411 203.812616019222 208.665297353013 2 28 28 56 1568
113	2977170 58 45304 46411 203.812616019222 208.665297353013 2 0 0 0 0
114	2977228 60 45305 46412 203.812616019222 208.665297353013 2 28 28 56 1568
115	2977288 145 45305 46842 203.812616019222 210.956710394234 5 0 3 10 26
116	2977433 232 45305 46423 203.812616019222 208.665521353013 8 0 2 8 12
117	2977665 60 45305 46412 203.812616019222 208.665297353013 2 28 28 56 1568
118	2977725 685 45982 66085 206.978195459028 315.395345461376 23 28 28 644 18032
119	2978410 662 45982 66085 206.978195459028 315.395345461376 23 0 0 0 0
120	2979072 685 45983 66086 206.978195459028 315.395345461376 23 28 28 644 18032
121	2979757 1324 45983 66097 206.978195459028 315.395569461376 46 2 3 115 299
122	2981081 2648 45983 66097 206.978195459028 315.395569461376 92 0 2 92 138
123	2983729 685 45983 66086 206.978195459028 315.395345461376 23 28 28 644 18032
124	2984414 718 47391 65799 213.517978686804 312.904488228552 25 1 4 67 209
vector 125 SensorNetwork "Cluster Duration" ETV
0	2985180 308 66662 79471 320 425 22 4 4 88 352
1	2985488 909 66662 100500 320 625 62 7 10 567 5273
2	2986397 913 66662 100500 320 625 62 0 0.1 2.2 0.22
3	2987310 913 66662 100500 320 625 62 0.6 1 54.5 49.61
4	2988223 2017 66875 100217 321.309743626007 622.283427528849 75 0 0 0 0
14	2990240 3539 66702 78991 320.32339773421 420.60407204504 127 0 3 189 441
15	2993779 11500 66702 78991 320.32339773421 420.60407204504 380 0 0.1 2.898 0.214956
16	3005279 7213 66699 100072 320.32339773421 620.934586377084 188 0 0.20109760462166 14.197333292252 1.8501188971636
17	3012492 11500 66702 78991 320.32339773421 420.60407204504 380 0 0.1 2.898 0.214956
20	3023992 1981 66991 100328 322.415276091225 623.336200443035 71 0 0 0 0
22	3025973 3820 66560 79742 319.144075157443 427.401001924744 137 0 3 200 464
23	3029793 12648 66560 79742 319.144075157443 427.401001924744 418 0 0.1 3.256 0.245232
24	3042441 7737 66560 100390 319.144075157443 623.915717001568 201 0 0.2171195495346 17.286549218849 2.4646700455539
25	3050178 12648 66560 79742 319.144075157443 427.401001924744 418 0 0.1 3.256 0.245232
28	3062826 1758 66691 100095 320.276968030206 621.143210725248 63 0 0 0 0
30	3064584 3926 66553 79131 319.144074190172 421.950124628733 141 0 3 205 475
31	3068510 13061 66553 79131 319.144074190172 421.950124628733 432 0 0.1 3.38 0.25536
32	3081571 8049 66550 100154 319.144074190172 621.7092354354 210 0 0.20624154087712 17.043607771958 2.3672085324139
33	3089620 13061 66553 79131 319.144074190172 421.950124628733 432 0 0.1 3.38 0.25536
36	3102681 2694 66584 100256 319.225791021048 622.648325060856 97 0 0 0 0
40	3105375 2198 66502 100573 318.68665941191 625.714050796555 80 0 0 0 0
44	3107573 2225 66866 100353 321.233208038275 623.570345015475 81 0 0 0 0
46	3109798 1538 66558 71243 319.144074908629 356.293242485795 55 0 3 84 198
47	3111336 4799 66558 71243 319.144074908629 356.293242485795 158 0 0.1 1.146 0.082212
48	3116135 4167 66558 100201 319.144074908629 622.14237065214 118 0 0.074507999154332 2.2170085521864 0.11067900323476
49	3120302 4799 66558 71243 319.144074908629 356.293242485795 158 0 0.1 1.146 0.082212
50	3125101 1215 66775 78755 320.642831216605 418.617776675102 42 28 28 1176 32928
51	3126316 1215 66775 78755 320.642831216605 418.617776675102 42 28 28 1176 32928
54	3127531 1274 66570 78802 319.144299157443 418.884667853676 44 28 28 1232 34496
55	3128805 1274 66570 78802 319.144299157443 418.884667853676 44 28 28 1232 34496
58	3130079 1300 66771 78806 320.642831120399 418.884668012756 45 28 28 1260 35280
59	3131379 1300 66771 78806 320.642831120399 418.884668012756 45 28 28 1260 35280
66	3132679 551 66566 71081 319.144298908629 354.819988342723 19 28 28 532 14896
67	3133230 551 66566 71081 319.144298908629 354.819988342723 19 28 28 532 14896
68	3133781 719 66552 78737 319.144074190172 418.617551859836 25 28 28 700 19600
69	3134500 694 66552 78737 319.144074190172 418.617551859836 25 0 0 0 0
70	3135194 719 66553 78738 319.144074190172 418.617551859836 25 28 28 700 19600
71	3135913 1416 66553 79131 319.144074190172 421.950124628733 51 0 3 125 325
72	3137329 2776 66553 78749 319.144074190172 418.617775859836 100 0 2 100 150
73	3140105 719 66553 78738 319.144074190172 418.617551859836 25 28 28 700 19600
94	3140824 690 66833 79643 321.13308963316 426.648247655484 24 28 28 672 18816
95	3141514 666 66833 79643 321.13308963316 426.648247655484 24 0 0 0 0
96	3142180 690 66834 79644 321.13308963316 426.648247655484 24 28 28 672 18816
97	3142870 1360 66834 79742 321.13308963316 427.401001924744 49 0 3 120 312
98	3144230 2664 66834 79655 321.13308963316 426.648471655484 96 0 2 96 144
99	3146894 690 66834 79644 321.13308963316 426.648247655484 24 28 28 672 18816
106	3147584 239 66757 70968 320.642606413026 354.142580217372 8 28 28 224 6272
107	3147823 231 66757 70968 320.642606413026 354.142580217372 8 0 0 0 0
108	3148054 239 66758 70969 320.642606413026 354.142580217372 8 28 28 224 6272
109	3148293 491 66758 71243 320.642606413026 356.293242485795 17 0 3 40 104
110	3148784 924 66758 70980 320.642606413026 354.142804217372 32 0 2 32 48
111	3149708 239 66758 70969 320.642606413026 354.142580217372 8 28 28 224 6272
118	3149947 625 66701 78788 320.32339773421 418.88444319089 21 28 28 588 16464
119	3150572 604 66701 78788 320.32339773421 418.88444319089 21 0 0 0 0
120	3151176 625 66702 78789 320.32339773421 418.88444319089 21 28 28 588 16464
121	3151801 1236 66702 78991 320.32339773421 420.60407204504 43 0 3 105 273
122	3153037 2416 66702 78800 320.32339773421 418.88466719089 84 0 2 84 126
123	3155453 625 66702 78789 320.32339773421 418.88444319089 21 28 28 588 16464
124	3156078 260 70440 79879 349.891711371214 428.740547736558 9 1 4 20 58
125	3156338 43 79641 79641 426.648247655484 426.648247655484 1 417.47301652311 417.47301652311 417.47301652311 174283.7195249

