file 35264941 1542394073                                        
version 2
run KHOPCA_Parameter_Study-165-20181116-18:47:18-24412
attr configname KHOPCA_Parameter_Study
attr datetime 20181116-18:47:18
attr experiment KHOPCA_Parameter_Study
attr inifile omnetpp.ini
attr iterationvars "$MAX=2, $range=2m, $numHosts=200, $speed=1.5mps, $update=0.5, $packetloss=0.01, $maxX=20m, $0=20m"
attr iterationvarsf MAX=2,range=2m,numHosts=200,speed=1.5mps,update=0.5,packetloss=0.01,maxX=20m,20m-
attr measurement "$MAX=2, $range=2m, $numHosts=200, $speed=1.5mps, $update=0.5, $packetloss=0.01, $maxX=20m, $0=20m"
attr network khopca_test.simulations.SensorNetwork
attr processid 24412
attr repetition 0
attr replication #0
attr resultdir results
attr runnumber 165
attr seedset 165
itervar MAX 2
itervar maxX 20m
itervar numHosts 200
itervar packetloss 0.01
itervar range 2m
itervar speed 1.5mps
itervar update 0.5
param **.host[*].khopca.MAX 2
param *.host*.wlan[*].radio.transmitter.communicationRange 2m
param *.numHosts 200
param **.host[*].mobility.speed 1.5mps
param **.host[*].khopca.updateInterval 0.5
param *.host[*].khopca.packetLossProbability 0.01
param **.constraintAreaMaxX 20m
param **.constraintAreaMaxY 20m
param *.numHosts 10
param *.host*.wlan[*].typename "\"IdealWirelessNic\""
param *.host*.wlan[*].mac.useAck false
param *.host*.wlan[*].mac.fullDuplex false
param *.host*.wlan[*].radio.transmitter.communicationRange 300m
param *.host*.wlan[*].radio.receiver.ignoreInterference true
param *.host*.**.bitrate 1Mbps
param *.visualizer.interfaceTableVisualizer.displayInterfaceTables false
param *.visualizer.interfaceTableVisualizer.interfaceFilter "\"wlan*\""
param *.visualizer.interfaceTableVisualizer.format "\"%N\\n%n\""
param *.visualizer.interfaceTableVisualizer.displacementHint "\"left\""
param *.visualizer.sceneVisualizer.descriptionFigure "\"title\""
param *.visualizer.linkBreakVisualizer.displayLinkBreaks true
param *.visualizer.packetDropVisualizer.displayPacketDrops true
param *.visualizer.packetDropVisualizer.packetFilter "\"UDPData*\""
param *.visualizer.mediumVisualizer.signalPropagationAnimationSpeed 0.000001
param *.visualizer.mediumVisualizer.signalTransmissionAnimationSpeed 0.0005
param *.visualizer.mediumVisualizer.displayTransmissions true
param *.visualizer.mediumVisualizer.displayReceptions true
param *.visualizer.mediumVisualizer.displaySignals false
param *.configurator.config "xml(\"<config><interface hosts='**' address='10.0.0.x' netmask='255.255.255.0'/><autoroute metric='errorRate'/></config>\")"
param *.configurator.optimizeRoutes false
param *.host*.routingTable.netmaskRoutes "\"\""
param *.configurator.addStaticRoutes false
param *.host*.wlan[0].radio.displayCommunicationRange false
param *.host*.wlan[0].radio.energyConsumerType "\"StateBasedEpEnergyConsumer\""
param **.host*.energyStorageType "\"SimpleEpEnergyStorage\""
param **.host*.energyStorage.nominalCapacity 1J
param **.host[*].energyStorage.initialCapacity "uniform(index * 0.01J, this.nominalCapacity)"
param **.host[*].khopca.updateInterval 3
param **.host[*].mobilityType "\"RandomWPMobility\""
param **.host[*].mobility.speed "uniform(index * 0.2mps,20mps)"
param **.host[*].mobility.waypointProximity 100m
param **.host[*].mobility.waitTime uniform(0s,1s)
param **.constraintAreaMinX 0m
param **.constraintAreaMinY 0m
param **.constraintAreaMinZ 0m
param **.constraintAreaMaxX 500m
param **.constraintAreaMaxY 500m
param **.constraintAreaMaxZ 10m
param **.hasStatus true

vector 0 SensorNetwork.host[156].energyStorage residualEnergyCapacity:vector ETV
attr interpolationmode linear
attr source residualEnergyCapacityChanged
attr title "Residual energy capacity, vector"
vector 1 SensorNetwork.host[156].wlan[0].queue rcvdPk:vector(packetBytes) ETV
attr interpolationmode none
attr title "received packets, vector(packetBytes)"
vector 2 SensorNetwork.host[156].wlan[0].queue queueingTime:vector ETV
attr interpolationmode none
attr title "queueing time, vector"
vector 3 SensorNetwork.host[156].wlan[0].mac rcvdPkFromHL:vector(packetBytes) ETV
attr interpolationmode none
attr source packetReceivedFromUpper
attr title "packets received from higher layer, vector(packetBytes)"
vector 4 SensorNetwork.host[156].wlan[0].radio radioMode:vector ETV
attr interpolationmode sample-hold
attr source radioModeChanged
attr title "Radio mode, vector"
vector 5 SensorNetwork.host[156].wlan[0].radio.energyConsumer powerConsumption:vector ETV
attr interpolationmode sample-hold
attr source powerConsumptionChanged
attr title "Power consumption, vector"
vector 6 SensorNetwork.host[156].energyStorage powerConsumption:vector ETV
attr interpolationmode sample-hold
attr source powerConsumptionChanged
attr title "Power consumption, vector"
vector 7 SensorNetwork.host[156].wlan[0].radio receptionState:vector ETV
attr interpolationmode sample-hold
attr source receptionStateChanged
attr title "Radio reception state, vector"
vector 8 SensorNetwork.host[156].wlan[0].radio transmissionState:vector ETV
attr interpolationmode sample-hold
attr source transmissionStateChanged
attr title "Radio transmission state, vector"
vector 9 SensorNetwork.host[156].wlan[0].mac sentDownPk:vector(packetBytes) ETV
attr interpolationmode none
attr source packetSentToLower
attr title "packets sent to lower layer, vector(packetBytes)"
vector 10 SensorNetwork.host[16].wlan[0].radio receptionState:vector ETV
attr interpolationmode sample-hold
attr source receptionStateChanged
attr title "Radio reception state, vector"
vector 11 SensorNetwork.host[16].wlan[0].radio.energyConsumer powerConsumption:vector ETV
attr interpolationmode sample-hold
attr source powerConsumptionChanged
attr title "Power consumption, vector"
vector 12 SensorNetwork.host[16].energyStorage residualEnergyCapacity:vector ETV
attr interpolationmode linear
attr source residualEnergyCapacityChanged
attr title "Residual energy capacity, vector"
vector 13 SensorNetwork.host[16].energyStorage powerConsumption:vector ETV
attr interpolationmode sample-hold
attr source powerConsumptionChanged
attr title "Power consumption, vector"
vector 14 SensorNetwork.host[16].wlan[0].mac rcvdPkFromLL:vector(packetBytes) ETV
attr interpolationmode none
attr source packetReceivedFromLower
attr title "packets received from lower layer, vector(packetBytes)"
vector 15 SensorNetwork.host[16].wlan[0].mac passedUpPk:vector(packetBytes) ETV
attr interpolationmode none
attr source packetSentToUpper
attr title "packets passed to higher layer, vector(packetBytes)"
vector 16 SensorNetwork.host[70].energyStorage residualEnergyCapacity:vector ETV
attr interpolationmode linear
attr source residualEnergyCapacityChanged
attr title "Residual energy capacity, vector"
vector 17 SensorNetwork.host[94].energyStorage residualEnergyCapacity:vector ETV
attr interpolationmode linear
attr source residualEnergyCapacityChanged
attr title "Residual energy capacity, vector"
vector 18 SensorNetwork.host[94].wlan[0].queue rcvdPk:vector(packetBytes) ETV
attr interpolationmode none
attr title "received packets, vector(packetBytes)"
vector 19 SensorNetwork.host[94].wlan[0].queue queueingTime:vector ETV
attr interpolationmode none
attr title "queueing time, vector"
vector 20 SensorNetwork.host[94].wlan[0].mac rcvdPkFromHL:vector(packetBytes) ETV
attr interpolationmode none
attr source packetReceivedFromUpper
attr title "packets received from higher layer, vector(packetBytes)"
vector 21 SensorNetwork.host[94].wlan[0].radio radioMode:vector ETV
attr interpolationmode sample-hold
attr source radioModeChanged
attr title "Radio mode, vector"
vector 22 SensorNetwork.host[94].wlan[0].radio.energyConsumer powerConsumption:vector ETV
attr interpolationmode sample-hold
attr source powerConsumptionChanged
attr title "Power consumption, vector"
vector 23 SensorNetwork.host[94].energyStorage powerConsumption:vector ETV
attr interpolationmode sample-hold
attr source powerConsumptionChanged
attr title "Power consumption, vector"
vector 24 SensorNetwork.host[94].wlan[0].radio receptionState:vector ETV
attr interpolationmode sample-hold
attr source receptionStateChanged
attr title "Radio reception state, vector"
vector 25 SensorNetwork.host[94].wlan[0].radio transmissionState:vector ETV
attr interpolationmode sample-hold
attr source transmissionStateChanged
attr title "Radio transmission state, vector"
vector 26 SensorNetwork.host[94].wlan[0].mac sentDownPk:vector(packetBytes) ETV
attr interpolationmode none
attr source packetSentToLower
attr title "packets sent to lower layer, vector(packetBytes)"
vector 27 SensorNetwork.host[178].wlan[0].radio receptionState:vector ETV
attr interpolationmode sample-hold
attr source receptionStateChanged
attr title "Radio reception state, vector"
vector 28 SensorNetwork.host[178].wlan[0].radio.energyConsumer powerConsumption:vector ETV
attr interpolationmode sample-hold
attr source powerConsumptionChanged
attr title "Power consumption, vector"
vector 29 SensorNetwork.host[178].energyStorage residualEnergyCapacity:vector ETV
attr interpolationmode linear
attr source residualEnergyCapacityChanged
attr title "Residual energy capacity, vector"
vector 30 SensorNetwork.host[178].energyStorage powerConsumption:vector ETV
attr interpolationmode sample-hold
attr source powerConsumptionChanged
attr title "Power consumption, vector"
vector 31 SensorNetwork.host[20].wlan[0].radio receptionState:vector ETV
attr interpolationmode sample-hold
attr source receptionStateChanged
attr title "Radio reception state, vector"
vector 32 SensorNetwork.host[20].wlan[0].radio.energyConsumer powerConsumption:vector ETV
attr interpolationmode sample-hold
attr source powerConsumptionChanged
attr title "Power consumption, vector"
vector 33 SensorNetwork.host[20].energyStorage residualEnergyCapacity:vector ETV
attr interpolationmode linear
attr source residualEnergyCapacityChanged
attr title "Residual energy capacity, vector"
vector 34 SensorNetwork.host[20].energyStorage powerConsumption:vector ETV
attr interpolationmode sample-hold
attr source powerConsumptionChanged
attr title "Power consumption, vector"
vector 35 SensorNetwork.host[178].wlan[0].mac rcvdPkFromLL:vector(packetBytes) ETV
attr interpolationmode none
attr source packetReceivedFromLower
attr title "packets received from lower layer, vector(packetBytes)"
vector 36 SensorNetwork.host[178].wlan[0].mac passedUpPk:vector(packetBytes) ETV
attr interpolationmode none
attr source packetSentToUpper
attr title "packets passed to higher layer, vector(packetBytes)"
vector 37 SensorNetwork.host[20].wlan[0].mac rcvdPkFromLL:vector(packetBytes) ETV
attr interpolationmode none
attr source packetReceivedFromLower
attr title "packets received from lower layer, vector(packetBytes)"
vector 38 SensorNetwork.host[20].wlan[0].mac passedUpPk:vector(packetBytes) ETV
attr interpolationmode none
attr source packetSentToUpper
attr title "packets passed to higher layer, vector(packetBytes)"
vector 39 SensorNetwork.host[27].energyStorage residualEnergyCapacity:vector ETV
attr interpolationmode linear
attr source residualEnergyCapacityChanged
attr title "Residual energy capacity, vector"
vector 40 SensorNetwork.host[27].wlan[0].queue rcvdPk:vector(packetBytes) ETV
attr interpolationmode none
attr title "received packets, vector(packetBytes)"
vector 41 SensorNetwork.host[27].wlan[0].queue queueingTime:vector ETV
attr interpolationmode none
attr title "queueing time, vector"
vector 42 SensorNetwork.host[27].wlan[0].mac rcvdPkFromHL:vector(packetBytes) ETV
attr interpolationmode none
attr source packetReceivedFromUpper
attr title "packets received from higher layer, vector(packetBytes)"
vector 43 SensorNetwork.host[27].wlan[0].radio radioMode:vector ETV
attr interpolationmode sample-hold
attr source radioModeChanged
attr title "Radio mode, vector"
vector 44 SensorNetwork.host[27].wlan[0].radio.energyConsumer powerConsumption:vector ETV
attr interpolationmode sample-hold
attr source powerConsumptionChanged
attr title "Power consumption, vector"
vector 45 SensorNetwork.host[27].energyStorage powerConsumption:vector ETV
attr interpolationmode sample-hold
attr source powerConsumptionChanged
attr title "Power consumption, vector"
vector 46 SensorNetwork.host[27].wlan[0].radio receptionState:vector ETV
attr interpolationmode sample-hold
attr source receptionStateChanged
attr title "Radio reception state, vector"
vector 47 SensorNetwork.host[27].wlan[0].radio transmissionState:vector ETV
attr interpolationmode sample-hold
attr source transmissionStateChanged
attr title "Radio transmission state, vector"
vector 48 SensorNetwork.host[27].wlan[0].mac sentDownPk:vector(packetBytes) ETV
attr interpolationmode none
attr source packetSentToLower
attr title "packets sent to lower layer, vector(packetBytes)"
vector 49 SensorNetwork.host[77].wlan[0].radio receptionState:vector ETV
attr interpolationmode sample-hold
attr source receptionStateChanged
attr title "Radio reception state, vector"
vector 50 SensorNetwork.host[77].wlan[0].radio.energyConsumer powerConsumption:vector ETV
attr interpolationmode sample-hold
attr source powerConsumptionChanged
attr title "Power consumption, vector"
vector 51 SensorNetwork.host[77].energyStorage residualEnergyCapacity:vector ETV
attr interpolationmode linear
attr source residualEnergyCapacityChanged
attr title "Residual energy capacity, vector"
vector 52 SensorNetwork.host[77].energyStorage powerConsumption:vector ETV
attr interpolationmode sample-hold
attr source powerConsumptionChanged
attr title "Power consumption, vector"
vector 53 SensorNetwork.host[157].wlan[0].radio receptionState:vector ETV
attr interpolationmode sample-hold
attr source receptionStateChanged
attr title "Radio reception state, vector"
vector 54 SensorNetwork.host[157].wlan[0].radio.energyConsumer powerConsumption:vector ETV
attr interpolationmode sample-hold
attr source powerConsumptionChanged
attr title "Power consumption, vector"
vector 55 SensorNetwork.host[157].energyStorage residualEnergyCapacity:vector ETV
attr interpolationmode linear
attr source residualEnergyCapacityChanged
attr title "Residual energy capacity, vector"
vector 56 SensorNetwork.host[157].energyStorage powerConsumption:vector ETV
attr interpolationmode sample-hold
attr source powerConsumptionChanged
attr title "Power consumption, vector"
vector 57 SensorNetwork.host[34].wlan[0].radio receptionState:vector ETV
attr interpolationmode sample-hold
attr source receptionStateChanged
attr title "Radio reception state, vector"
vector 58 SensorNetwork.host[34].wlan[0].radio.energyConsumer powerConsumption:vector ETV
attr interpolationmode sample-hold
attr source powerConsumptionChanged
attr title "Power consumption, vector"
vector 59 SensorNetwork.host[34].energyStorage residualEnergyCapacity:vector ETV
attr interpolationmode linear
attr source residualEnergyCapacityChanged
attr title "Residual energy capacity, vector"
vector 60 SensorNetwork.host[34].energyStorage powerConsumption:vector ETV
attr interpolationmode sample-hold
attr source powerConsumptionChanged
attr title "Power consumption, vector"
vector 61 SensorNetwork.host[173].wlan[0].radio receptionState:vector ETV
attr interpolationmode sample-hold
attr source receptionStateChanged
attr title "Radio reception state, vector"
vector 62 SensorNetwork.host[173].wlan[0].radio.energyConsumer powerConsumption:vector ETV
attr interpolationmode sample-hold
attr source powerConsumptionChanged
attr title "Power consumption, vector"
vector 63 SensorNetwork.host[173].energyStorage residualEnergyCapacity:vector ETV
attr interpolationmode linear
attr source residualEnergyCapacityChanged
attr title "Residual energy capacity, vector"
vector 64 SensorNetwork.host[173].energyStorage powerConsumption:vector ETV
attr interpolationmode sample-hold
attr source powerConsumptionChanged
attr title "Power consumption, vector"
vector 65 SensorNetwork.host[71].wlan[0].radio receptionState:vector ETV
attr interpolationmode sample-hold
attr source receptionStateChanged
attr title "Radio reception state, vector"
vector 66 SensorNetwork.host[71].wlan[0].radio.energyConsumer powerConsumption:vector ETV
attr interpolationmode sample-hold
attr source powerConsumptionChanged
attr title "Power consumption, vector"
vector 67 SensorNetwork.host[71].energyStorage residualEnergyCapacity:vector ETV
attr interpolationmode linear
attr source residualEnergyCapacityChanged
attr title "Residual energy capacity, vector"
vector 68 SensorNetwork.host[71].energyStorage powerConsumption:vector ETV
attr interpolationmode sample-hold
attr source powerConsumptionChanged
attr title "Power consumption, vector"
vector 69 SensorNetwork.host[138].wlan[0].radio receptionState:vector ETV
attr interpolationmode sample-hold
attr source receptionStateChanged
attr title "Radio reception state, vector"
vector 70 SensorNetwork.host[138].wlan[0].radio.energyConsumer powerConsumption:vector ETV
attr interpolationmode sample-hold
attr source powerConsumptionChanged
attr title "Power consumption, vector"
vector 71 SensorNetwork.host[138].energyStorage residualEnergyCapacity:vector ETV
attr interpolationmode linear
attr source residualEnergyCapacityChanged
attr title "Residual energy capacity, vector"
vector 72 SensorNetwork.host[138].energyStorage powerConsumption:vector ETV
attr interpolationmode sample-hold
attr source powerConsumptionChanged
attr title "Power consumption, vector"
vector 73 SensorNetwork.host[189].wlan[0].radio receptionState:vector ETV
attr interpolationmode sample-hold
attr source receptionStateChanged
attr title "Radio reception state, vector"
vector 74 SensorNetwork.host[189].wlan[0].radio.energyConsumer powerConsumption:vector ETV
attr interpolationmode sample-hold
attr source powerConsumptionChanged
attr title "Power consumption, vector"
vector 75 SensorNetwork.host[189].energyStorage residualEnergyCapacity:vector ETV
attr interpolationmode linear
attr source residualEnergyCapacityChanged
attr title "Residual energy capacity, vector"
vector 76 SensorNetwork.host[189].energyStorage powerConsumption:vector ETV
attr interpolationmode sample-hold
attr source powerConsumptionChanged
attr title "Power consumption, vector"
vector 77 SensorNetwork.host[77].wlan[0].mac rcvdPkFromLL:vector(packetBytes) ETV
attr interpolationmode none
attr source packetReceivedFromLower
attr title "packets received from lower layer, vector(packetBytes)"
vector 78 SensorNetwork.host[77].wlan[0].mac passedUpPk:vector(packetBytes) ETV
attr interpolationmode none
attr source packetSentToUpper
attr title "packets passed to higher layer, vector(packetBytes)"
vector 79 SensorNetwork.host[157].wlan[0].mac rcvdPkFromLL:vector(packetBytes) ETV
attr interpolationmode none
attr source packetReceivedFromLower
attr title "packets received from lower layer, vector(packetBytes)"
vector 80 SensorNetwork.host[157].wlan[0].mac passedUpPk:vector(packetBytes) ETV
attr interpolationmode none
attr source packetSentToUpper
attr title "packets passed to higher layer, vector(packetBytes)"
vector 81 SensorNetwork.host[34].wlan[0].mac rcvdPkFromLL:vector(packetBytes) ETV
attr interpolationmode none
attr source packetReceivedFromLower
attr title "packets received from lower layer, vector(packetBytes)"
vector 82 SensorNetwork.host[34].wlan[0].mac passedUpPk:vector(packetBytes) ETV
attr interpolationmode none
attr source packetSentToUpper
attr title "packets passed to higher layer, vector(packetBytes)"
vector 83 SensorNetwork.host[173].wlan[0].mac rcvdPkFromLL:vector(packetBytes) ETV
attr interpolationmode none
attr source packetReceivedFromLower
attr title "packets received from lower layer, vector(packetBytes)"
vector 84 SensorNetwork.host[173].wlan[0].mac passedUpPk:vector(packetBytes) ETV
attr interpolationmode none
attr source packetSentToUpper
attr title "packets passed to higher layer, vector(packetBytes)"
vector 85 SensorNetwork.host[71].wlan[0].mac rcvdPkFromLL:vector(packetBytes) ETV
attr interpolationmode none
attr source packetReceivedFromLower
attr title "packets received from lower layer, vector(packetBytes)"
vector 86 SensorNetwork.host[71].wlan[0].mac passedUpPk:vector(packetBytes) ETV
attr interpolationmode none
attr source packetSentToUpper
attr title "packets passed to higher layer, vector(packetBytes)"
vector 87 SensorNetwork.host[138].wlan[0].mac rcvdPkFromLL:vector(packetBytes) ETV
attr interpolationmode none
attr source packetReceivedFromLower
attr title "packets received from lower layer, vector(packetBytes)"
vector 88 SensorNetwork.host[138].wlan[0].mac passedUpPk:vector(packetBytes) ETV
attr interpolationmode none
attr source packetSentToUpper
attr title "packets passed to higher layer, vector(packetBytes)"
vector 89 SensorNetwork.host[189].wlan[0].mac rcvdPkFromLL:vector(packetBytes) ETV
attr interpolationmode none
attr source packetReceivedFromLower
attr title "packets received from lower layer, vector(packetBytes)"
vector 90 SensorNetwork.host[189].wlan[0].mac passedUpPk:vector(packetBytes) ETV
attr interpolationmode none
attr source packetSentToUpper
attr title "packets passed to higher layer, vector(packetBytes)"
vector 91 SensorNetwork.host[144].energyStorage residualEnergyCapacity:vector ETV
attr interpolationmode linear
attr source residualEnergyCapacityChanged
attr title "Residual energy capacity, vector"
vector 92 SensorNetwork.host[144].wlan[0].queue rcvdPk:vector(packetBytes) ETV
attr interpolationmode none
attr title "received packets, vector(packetBytes)"
vector 93 SensorNetwork.host[144].wlan[0].queue queueingTime:vector ETV
attr interpolationmode none
attr title "queueing time, vector"
vector 94 SensorNetwork.host[144].wlan[0].mac rcvdPkFromHL:vector(packetBytes) ETV
attr interpolationmode none
attr source packetReceivedFromUpper
attr title "packets received from higher layer, vector(packetBytes)"
vector 95 SensorNetwork.host[144].wlan[0].radio radioMode:vector ETV
attr interpolationmode sample-hold
attr source radioModeChanged
attr title "Radio mode, vector"
vector 96 SensorNetwork.host[144].wlan[0].radio.energyConsumer powerConsumption:vector ETV
attr interpolationmode sample-hold
attr source powerConsumptionChanged
attr title "Power consumption, vector"
vector 97 SensorNetwork.host[144].energyStorage powerConsumption:vector ETV
attr interpolationmode sample-hold
attr source powerConsumptionChanged
attr title "Power consumption, vector"
vector 98 SensorNetwork.host[144].wlan[0].radio receptionState:vector ETV
attr interpolationmode sample-hold
attr source receptionStateChanged
attr title "Radio reception state, vector"
vector 99 SensorNetwork.host[144].wlan[0].radio transmissionState:vector ETV
attr interpolationmode sample-hold
attr source transmissionStateChanged
attr title "Radio transmission state, vector"
vector 100 SensorNetwork.host[144].wlan[0].mac sentDownPk:vector(packetBytes) ETV
attr interpolationmode none
attr source packetSentToLower
attr title "packets sent to lower layer, vector(packetBytes)"
vector 101 SensorNetwork.host[198].wlan[0].radio receptionState:vector ETV
attr interpolationmode sample-hold
attr source receptionStateChanged
attr title "Radio reception state, vector"
vector 102 SensorNetwork.host[198].wlan[0].radio.energyConsumer powerConsumption:vector ETV
attr interpolationmode sample-hold
attr source powerConsumptionChanged
attr title "Power consumption, vector"
vector 103 SensorNetwork.host[198].energyStorage residualEnergyCapacity:vector ETV
attr interpolationmode linear
attr source residualEnergyCapacityChanged
attr title "Residual energy capacity, vector"
vector 104 SensorNetwork.host[198].energyStorage powerConsumption:vector ETV
attr interpolationmode sample-hold
attr source powerConsumptionChanged
attr title "Power consumption, vector"
vector 105 SensorNetwork.host[198].wlan[0].mac rcvdPkFromLL:vector(packetBytes) ETV
attr interpolationmode none
attr source packetReceivedFromLower
attr title "packets received from lower layer, vector(packetBytes)"
vector 106 SensorNetwork.host[198].wlan[0].mac passedUpPk:vector(packetBytes) ETV
attr interpolationmode none
attr source packetSentToUpper
attr title "packets passed to higher layer, vector(packetBytes)"
vector 107 SensorNetwork.host[109].energyStorage residualEnergyCapacity:vector ETV
attr interpolationmode linear
attr source residualEnergyCapacityChanged
attr title "Residual energy capacity, vector"
vector 108 SensorNetwork.host[109].wlan[0].queue rcvdPk:vector(packetBytes) ETV
attr interpolationmode none
attr title "received packets, vector(packetBytes)"
vector 109 SensorNetwork.host[109].wlan[0].queue queueingTime:vector ETV
attr interpolationmode none
attr title "queueing time, vector"
vector 110 SensorNetwork.host[109].wlan[0].mac rcvdPkFromHL:vector(packetBytes) ETV
attr interpolationmode none
attr source packetReceivedFromUpper
attr title "packets received from higher layer, vector(packetBytes)"
vector 111 SensorNetwork.host[109].wlan[0].radio radioMode:vector ETV
attr interpolationmode sample-hold
attr source radioModeChanged
attr title "Radio mode, vector"
vector 112 SensorNetwork.host[109].wlan[0].radio.energyConsumer powerConsumption:vector ETV
attr interpolationmode sample-hold
attr source powerConsumptionChanged
attr title "Power consumption, vector"
vector 113 SensorNetwork.host[109].energyStorage powerConsumption:vector ETV
attr interpolationmode sample-hold
attr source powerConsumptionChanged
attr title "Power consumption, vector"
vector 114 SensorNetwork.host[109].wlan[0].radio receptionState:vector ETV
attr interpolationmode sample-hold
attr source receptionStateChanged
attr title "Radio reception state, vector"
vector 115 SensorNetwork.host[109].wlan[0].radio transmissionState:vector ETV
attr interpolationmode sample-hold
attr source transmissionStateChanged
attr title "Radio transmission state, vector"
vector 116 SensorNetwork.host[109].wlan[0].mac sentDownPk:vector(packetBytes) ETV
attr interpolationmode none
attr source packetSentToLower
attr title "packets sent to lower layer, vector(packetBytes)"
vector 117 SensorNetwork.host[80].wlan[0].radio receptionState:vector ETV
attr interpolationmode sample-hold
attr source receptionStateChanged
attr title "Radio reception state, vector"
vector 118 SensorNetwork.host[80].wlan[0].radio.energyConsumer powerConsumption:vector ETV
attr interpolationmode sample-hold
attr source powerConsumptionChanged
attr title "Power consumption, vector"
vector 119 SensorNetwork.host[80].energyStorage residualEnergyCapacity:vector ETV
attr interpolationmode linear
attr source residualEnergyCapacityChanged
attr title "Residual energy capacity, vector"
vector 120 SensorNetwork.host[80].energyStorage powerConsumption:vector ETV
attr interpolationmode sample-hold
attr source powerConsumptionChanged
attr title "Power consumption, vector"
vector 121 SensorNetwork.host[194].wlan[0].radio receptionState:vector ETV
attr interpolationmode sample-hold
attr source receptionStateChanged
attr title "Radio reception state, vector"
vector 122 SensorNetwork.host[194].wlan[0].radio.energyConsumer powerConsumption:vector ETV
attr interpolationmode sample-hold
attr source powerConsumptionChanged
attr title "Power consumption, vector"
vector 123 SensorNetwork.host[194].energyStorage residualEnergyCapacity:vector ETV
attr interpolationmode linear
attr source residualEnergyCapacityChanged
attr title "Residual energy capacity, vector"
vector 124 SensorNetwork.host[194].energyStorage powerConsumption:vector ETV
attr interpolationmode sample-hold
attr source powerConsumptionChanged
attr title "Power consumption, vector"
vector 125 SensorNetwork.host[80].wlan[0].mac rcvdPkFromLL:vector(packetBytes) ETV
attr interpolationmode none
attr source packetReceivedFromLower
attr title "packets received from lower layer, vector(packetBytes)"
vector 126 SensorNetwork.host[80].wlan[0].mac passedUpPk:vector(packetBytes) ETV
attr interpolationmode none
attr source packetSentToUpper
attr title "packets passed to higher layer, vector(packetBytes)"
vector 127 SensorNetwork.host[194].wlan[0].mac rcvdPkFromLL:vector(packetBytes) ETV
attr interpolationmode none
attr source packetReceivedFromLower
attr title "packets received from lower layer, vector(packetBytes)"
vector 128 SensorNetwork.host[194].wlan[0].mac passedUpPk:vector(packetBytes) ETV
attr interpolationmode none
attr source packetSentToUpper
attr title "packets passed to higher layer, vector(packetBytes)"
vector 129 SensorNetwork.host[41].energyStorage residualEnergyCapacity:vector ETV
attr interpolationmode linear
attr source residualEnergyCapacityChanged
attr title "Residual energy capacity, vector"
vector 130 SensorNetwork.host[41].wlan[0].queue rcvdPk:vector(packetBytes) ETV
attr interpolationmode none
attr title "received packets, vector(packetBytes)"
vector 131 SensorNetwork.host[41].wlan[0].queue queueingTime:vector ETV
attr interpolationmode none
attr title "queueing time, vector"
vector 132 SensorNetwork.host[41].wlan[0].mac rcvdPkFromHL:vector(packetBytes) ETV
attr interpolationmode none
attr source packetReceivedFromUpper
attr title "packets received from higher layer, vector(packetBytes)"
vector 133 SensorNetwork.host[41].wlan[0].radio radioMode:vector ETV
attr interpolationmode sample-hold
attr source radioModeChanged
attr title "Radio mode, vector"
vector 134 SensorNetwork.host[41].wlan[0].radio.energyConsumer powerConsumption:vector ETV
attr interpolationmode sample-hold
attr source powerConsumptionChanged
attr title "Power consumption, vector"
vector 135 SensorNetwork.host[41].energyStorage powerConsumption:vector ETV
attr interpolationmode sample-hold
attr source powerConsumptionChanged
attr title "Power consumption, vector"
vector 136 SensorNetwork.host[41].wlan[0].radio receptionState:vector ETV
attr interpolationmode sample-hold
attr source receptionStateChanged
attr title "Radio reception state, vector"
vector 137 SensorNetwork.host[41].wlan[0].radio transmissionState:vector ETV
attr interpolationmode sample-hold
attr source transmissionStateChanged
attr title "Radio transmission state, vector"
vector 138 SensorNetwork.host[41].wlan[0].mac sentDownPk:vector(packetBytes) ETV
attr interpolationmode none
attr source packetSentToLower
attr title "packets sent to lower layer, vector(packetBytes)"
vector 139 SensorNetwork.host[158].wlan[0].radio receptionState:vector ETV
attr interpolationmode sample-hold
attr source receptionStateChanged
attr title "Radio reception state, vector"
vector 140 SensorNetwork.host[158].wlan[0].radio.energyConsumer powerConsumption:vector ETV
attr interpolationmode sample-hold
attr source powerConsumptionChanged
attr title "Power consumption, vector"
vector 141 SensorNetwork.host[158].energyStorage residualEnergyCapacity:vector ETV
attr interpolationmode linear
attr source residualEnergyCapacityChanged
attr title "Residual energy capacity, vector"
vector 142 SensorNetwork.host[158].energyStorage powerConsumption:vector ETV
attr interpolationmode sample-hold
attr source powerConsumptionChanged
attr title "Power consumption, vector"
vector 143 SensorNetwork.host[98].energyStorage residualEnergyCapacity:vector ETV
attr interpolationmode linear
attr source residualEnergyCapacityChanged
attr title "Residual energy capacity, vector"
vector 144 SensorNetwork "Role Changes" ETV
vector 145 SensorNetwork.host[98].wlan[0].queue rcvdPk:vector(packetBytes) ETV
attr interpolationmode none
attr title "received packets, vector(packetBytes)"
vector 146 SensorNetwork.host[98].wlan[0].queue queueingTime:vector ETV
attr interpolationmode none
attr title "queueing time, vector"
vector 147 SensorNetwork.host[98].wlan[0].mac rcvdPkFromHL:vector(packetBytes) ETV
attr interpolationmode none
attr source packetReceivedFromUpper
attr title "packets received from higher layer, vector(packetBytes)"
vector 148 SensorNetwork.host[98].wlan[0].radio radioMode:vector ETV
attr interpolationmode sample-hold
attr source radioModeChanged
attr title "Radio mode, vector"
vector 149 SensorNetwork.host[98].wlan[0].radio.energyConsumer powerConsumption:vector ETV
attr interpolationmode sample-hold
attr source powerConsumptionChanged
attr title "Power consumption, vector"
vector 150 SensorNetwork.host[98].energyStorage powerConsumption:vector ETV
attr interpolationmode sample-hold
attr source powerConsumptionChanged
attr title "Power consumption, vector"
vector 151 SensorNetwork.host[98].wlan[0].radio receptionState:vector ETV
attr interpolationmode sample-hold
attr source receptionStateChanged
attr title "Radio reception state, vector"
vector 152 SensorNetwork.host[98].wlan[0].radio transmissionState:vector ETV
attr interpolationmode sample-hold
attr source transmissionStateChanged
attr title "Radio transmission state, vector"
vector 153 SensorNetwork.host[98].wlan[0].mac sentDownPk:vector(packetBytes) ETV
attr interpolationmode none
attr source packetSentToLower
attr title "packets sent to lower layer, vector(packetBytes)"
vector 154 SensorNetwork.host[15].wlan[0].radio receptionState:vector ETV
attr interpolationmode sample-hold
attr source receptionStateChanged
attr title "Radio reception state, vector"
vector 155 SensorNetwork.host[15].wlan[0].radio.energyConsumer powerConsumption:vector ETV
attr interpolationmode sample-hold
attr source powerConsumptionChanged
attr title "Power consumption, vector"
vector 156 SensorNetwork.host[15].energyStorage residualEnergyCapacity:vector ETV
attr interpolationmode linear
attr source residualEnergyCapacityChanged
attr title "Residual energy capacity, vector"
vector 157 SensorNetwork.host[15].energyStorage powerConsumption:vector ETV
attr interpolationmode sample-hold
attr source powerConsumptionChanged
attr title "Power consumption, vector"
vector 158 SensorNetwork.host[139].wlan[0].radio receptionState:vector ETV
attr interpolationmode sample-hold
attr source receptionStateChanged
attr title "Radio reception state, vector"
vector 159 SensorNetwork.host[139].wlan[0].radio.energyConsumer powerConsumption:vector ETV
attr interpolationmode sample-hold
attr source powerConsumptionChanged
attr title "Power consumption, vector"
vector 160 SensorNetwork.host[139].energyStorage residualEnergyCapacity:vector ETV
attr interpolationmode linear
attr source residualEnergyCapacityChanged
attr title "Residual energy capacity, vector"
vector 161 SensorNetwork.host[139].energyStorage powerConsumption:vector ETV
attr interpolationmode sample-hold
attr source powerConsumptionChanged
attr title "Power consumption, vector"
vector 162 SensorNetwork.host[64].wlan[0].radio receptionState:vector ETV
attr interpolationmode sample-hold
attr source receptionStateChanged
attr title "Radio reception state, vector"
vector 163 SensorNetwork.host[64].wlan[0].radio.energyConsumer powerConsumption:vector ETV
attr interpolationmode sample-hold
attr source powerConsumptionChanged
attr title "Power consumption, vector"
vector 164 SensorNetwork.host[64].energyStorage residualEnergyCapacity:vector ETV
attr interpolationmode linear
attr source residualEnergyCapacityChanged
attr title "Residual energy capacity, vector"
vector 165 SensorNetwork.host[64].energyStorage powerConsumption:vector ETV
attr interpolationmode sample-hold
attr source powerConsumptionChanged
attr title "Power consumption, vector"
vector 166 SensorNetwork.host[158].wlan[0].mac rcvdPkFromLL:vector(packetBytes) ETV
attr interpolationmode none
attr source packetReceivedFromLower
attr title "packets received from lower layer, vector(packetBytes)"
vector 167 SensorNetwork.host[158].wlan[0].mac passedUpPk:vector(packetBytes) ETV
attr interpolationmode none
attr source packetSentToUpper
attr title "packets passed to higher layer, vector(packetBytes)"
vector 168 SensorNetwork.host[15].wlan[0].mac rcvdPkFromLL:vector(packetBytes) ETV
attr interpolationmode none
attr source packetReceivedFromLower
attr title "packets received from lower layer, vector(packetBytes)"
vector 169 SensorNetwork.host[15].wlan[0].mac passedUpPk:vector(packetBytes) ETV
attr interpolationmode none
attr source packetSentToUpper
attr title "packets passed to higher layer, vector(packetBytes)"
vector 170 SensorNetwork.host[139].wlan[0].mac rcvdPkFromLL:vector(packetBytes) ETV
attr interpolationmode none
attr source packetReceivedFromLower
attr title "packets received from lower layer, vector(packetBytes)"
vector 171 SensorNetwork.host[139].wlan[0].mac passedUpPk:vector(packetBytes) ETV
attr interpolationmode none
attr source packetSentToUpper
attr title "packets passed to higher layer, vector(packetBytes)"
vector 172 SensorNetwork.host[64].wlan[0].mac rcvdPkFromLL:vector(packetBytes) ETV
attr interpolationmode none
attr source packetReceivedFromLower
attr title "packets received from lower layer, vector(packetBytes)"
vector 173 SensorNetwork.host[64].wlan[0].mac passedUpPk:vector(packetBytes) ETV
attr interpolationmode none
attr source packetSentToUpper
attr title "packets passed to higher layer, vector(packetBytes)"
vector 174 SensorNetwork.host[102].energyStorage residualEnergyCapacity:vector ETV
attr interpolationmode linear
attr source residualEnergyCapacityChanged
attr title "Residual energy capacity, vector"
vector 175 SensorNetwork.host[102].wlan[0].queue rcvdPk:vector(packetBytes) ETV
attr interpolationmode none
attr title "received packets, vector(packetBytes)"
vector 176 SensorNetwork.host[102].wlan[0].queue queueingTime:vector ETV
attr interpolationmode none
attr title "queueing time, vector"
vector 177 SensorNetwork.host[102].wlan[0].mac rcvdPkFromHL:vector(packetBytes) ETV
attr interpolationmode none
attr source packetReceivedFromUpper
attr title "packets received from higher layer, vector(packetBytes)"
vector 178 SensorNetwork.host[102].wlan[0].radio radioMode:vector ETV
attr interpolationmode sample-hold
attr source radioModeChanged
attr title "Radio mode, vector"
vector 179 SensorNetwork.host[102].wlan[0].radio.energyConsumer powerConsumption:vector ETV
attr interpolationmode sample-hold
attr source powerConsumptionChanged
attr title "Power consumption, vector"
vector 180 SensorNetwork.host[102].energyStorage powerConsumption:vector ETV
attr interpolationmode sample-hold
attr source powerConsumptionChanged
attr title "Power consumption, vector"
vector 181 SensorNetwork.host[102].wlan[0].radio receptionState:vector ETV
attr interpolationmode sample-hold
attr source receptionStateChanged
attr title "Radio reception state, vector"
vector 182 SensorNetwork.host[102].wlan[0].radio transmissionState:vector ETV
attr interpolationmode sample-hold
attr source transmissionStateChanged
attr title "Radio transmission state, vector"
vector 183 SensorNetwork.host[102].wlan[0].mac sentDownPk:vector(packetBytes) ETV
attr interpolationmode none
attr source packetSentToLower
attr title "packets sent to lower layer, vector(packetBytes)"
vector 184 SensorNetwork.host[159].wlan[0].radio receptionState:vector ETV
attr interpolationmode sample-hold
attr source receptionStateChanged
attr title "Radio reception state, vector"
vector 185 SensorNetwork.host[159].wlan[0].radio.energyConsumer powerConsumption:vector ETV
attr interpolationmode sample-hold
attr source powerConsumptionChanged
attr title "Power consumption, vector"
vector 186 SensorNetwork.host[159].energyStorage residualEnergyCapacity:vector ETV
attr interpolationmode linear
attr source residualEnergyCapacityChanged
attr title "Residual energy capacity, vector"
vector 187 SensorNetwork.host[159].energyStorage powerConsumption:vector ETV
attr interpolationmode sample-hold
attr source powerConsumptionChanged
attr title "Power consumption, vector"
vector 188 SensorNetwork.host[92].wlan[0].radio receptionState:vector ETV
attr interpolationmode sample-hold
attr source receptionStateChanged
attr title "Radio reception state, vector"
vector 189 SensorNetwork.host[92].wlan[0].radio.energyConsumer powerConsumption:vector ETV
attr interpolationmode sample-hold
attr source powerConsumptionChanged
attr title "Power consumption, vector"
vector 190 SensorNetwork.host[92].energyStorage residualEnergyCapacity:vector ETV
attr interpolationmode linear
attr source residualEnergyCapacityChanged
attr title "Residual energy capacity, vector"
vector 191 SensorNetwork.host[92].energyStorage powerConsumption:vector ETV
attr interpolationmode sample-hold
attr source powerConsumptionChanged
attr title "Power consumption, vector"
vector 192 SensorNetwork.host[159].wlan[0].mac rcvdPkFromLL:vector(packetBytes) ETV
attr interpolationmode none
attr source packetReceivedFromLower
attr title "packets received from lower layer, vector(packetBytes)"
vector 193 SensorNetwork.host[159].wlan[0].mac passedUpPk:vector(packetBytes) ETV
attr interpolationmode none
attr source packetSentToUpper
attr title "packets passed to higher layer, vector(packetBytes)"
vector 194 SensorNetwork.host[92].wlan[0].mac rcvdPkFromLL:vector(packetBytes) ETV
attr interpolationmode none
attr source packetReceivedFromLower
attr title "packets received from lower layer, vector(packetBytes)"
vector 195 SensorNetwork.host[92].wlan[0].mac passedUpPk:vector(packetBytes) ETV
attr interpolationmode none
attr source packetSentToUpper
attr title "packets passed to higher layer, vector(packetBytes)"
vector 196 SensorNetwork.host[85].energyStorage residualEnergyCapacity:vector ETV
attr interpolationmode linear
attr source residualEnergyCapacityChanged
attr title "Residual energy capacity, vector"
vector 197 SensorNetwork.host[85].wlan[0].queue rcvdPk:vector(packetBytes) ETV
attr interpolationmode none
attr title "received packets, vector(packetBytes)"
vector 198 SensorNetwork.host[85].wlan[0].queue queueingTime:vector ETV
attr interpolationmode none
attr title "queueing time, vector"
vector 199 SensorNetwork.host[85].wlan[0].mac rcvdPkFromHL:vector(packetBytes) ETV
attr interpolationmode none
attr source packetReceivedFromUpper
attr title "packets received from higher layer, vector(packetBytes)"
vector 200 SensorNetwork.host[85].wlan[0].radio radioMode:vector ETV
attr interpolationmode sample-hold
attr source radioModeChanged
attr title "Radio mode, vector"
vector 201 SensorNetwork.host[85].wlan[0].radio.energyConsumer powerConsumption:vector ETV
attr interpolationmode sample-hold
attr source powerConsumptionChanged
attr title "Power consumption, vector"
vector 202 SensorNetwork.host[85].energyStorage powerConsumption:vector ETV
attr interpolationmode sample-hold
attr source powerConsumptionChanged
attr title "Power consumption, vector"
vector 203 SensorNetwork.host[85].wlan[0].radio receptionState:vector ETV
attr interpolationmode sample-hold
attr source receptionStateChanged
attr title "Radio reception state, vector"
vector 204 SensorNetwork.host[85].wlan[0].radio transmissionState:vector ETV
attr interpolationmode sample-hold
attr source transmissionStateChanged
attr title "Radio transmission state, vector"
vector 205 SensorNetwork.host[85].wlan[0].mac sentDownPk:vector(packetBytes) ETV
attr interpolationmode none
attr source packetSentToLower
attr title "packets sent to lower layer, vector(packetBytes)"
vector 206 SensorNetwork.host[33].wlan[0].radio receptionState:vector ETV
attr interpolationmode sample-hold
attr source receptionStateChanged
attr title "Radio reception state, vector"
vector 207 SensorNetwork.host[33].wlan[0].radio.energyConsumer powerConsumption:vector ETV
attr interpolationmode sample-hold
attr source powerConsumptionChanged
attr title "Power consumption, vector"
vector 208 SensorNetwork.host[33].energyStorage residualEnergyCapacity:vector ETV
attr interpolationmode linear
attr source residualEnergyCapacityChanged
attr title "Residual energy capacity, vector"
vector 209 SensorNetwork.host[33].energyStorage powerConsumption:vector ETV
attr interpolationmode sample-hold
attr source powerConsumptionChanged
attr title "Power consumption, vector"
vector 210 SensorNetwork.host[142].wlan[0].radio receptionState:vector ETV
attr interpolationmode sample-hold
attr source receptionStateChanged
attr title "Radio reception state, vector"
vector 211 SensorNetwork.host[142].wlan[0].radio.energyConsumer powerConsumption:vector ETV
attr interpolationmode sample-hold
attr source powerConsumptionChanged
attr title "Power consumption, vector"
vector 212 SensorNetwork.host[142].energyStorage residualEnergyCapacity:vector ETV
attr interpolationmode linear
attr source residualEnergyCapacityChanged
attr title "Residual energy capacity, vector"
vector 213 SensorNetwork.host[142].energyStorage powerConsumption:vector ETV
attr interpolationmode sample-hold
attr source powerConsumptionChanged
attr title "Power consumption, vector"
vector 214 SensorNetwork.host[33].wlan[0].mac rcvdPkFromLL:vector(packetBytes) ETV
attr interpolationmode none
attr source packetReceivedFromLower
attr title "packets received from lower layer, vector(packetBytes)"
vector 215 SensorNetwork.host[33].wlan[0].mac passedUpPk:vector(packetBytes) ETV
attr interpolationmode none
attr source packetSentToUpper
attr title "packets passed to higher layer, vector(packetBytes)"
vector 216 SensorNetwork.host[142].wlan[0].mac rcvdPkFromLL:vector(packetBytes) ETV
attr interpolationmode none
attr source packetReceivedFromLower
attr title "packets received from lower layer, vector(packetBytes)"
vector 217 SensorNetwork.host[142].wlan[0].mac passedUpPk:vector(packetBytes) ETV
attr interpolationmode none
attr source packetSentToUpper
attr title "packets passed to higher layer, vector(packetBytes)"
vector 218 SensorNetwork.host[108].energyStorage residualEnergyCapacity:vector ETV
attr interpolationmode linear
attr source residualEnergyCapacityChanged
attr title "Residual energy capacity, vector"
vector 219 SensorNetwork.host[108].wlan[0].queue rcvdPk:vector(packetBytes) ETV
attr interpolationmode none
attr title "received packets, vector(packetBytes)"
vector 220 SensorNetwork.host[108].wlan[0].queue queueingTime:vector ETV
attr interpolationmode none
attr title "queueing time, vector"
vector 221 SensorNetwork.host[108].wlan[0].mac rcvdPkFromHL:vector(packetBytes) ETV
attr interpolationmode none
attr source packetReceivedFromUpper
attr title "packets received from higher layer, vector(packetBytes)"
vector 222 SensorNetwork.host[108].wlan[0].radio radioMode:vector ETV
attr interpolationmode sample-hold
attr source radioModeChanged
attr title "Radio mode, vector"
vector 223 SensorNetwork.host[108].wlan[0].radio.energyConsumer powerConsumption:vector ETV
attr interpolationmode sample-hold
attr source powerConsumptionChanged
attr title "Power consumption, vector"
vector 224 SensorNetwork.host[108].energyStorage powerConsumption:vector ETV
attr interpolationmode sample-hold
attr source powerConsumptionChanged
attr title "Power consumption, vector"
vector 225 SensorNetwork.host[108].wlan[0].radio receptionState:vector ETV
attr interpolationmode sample-hold
attr source receptionStateChanged
attr title "Radio reception state, vector"
vector 226 SensorNetwork.host[108].wlan[0].radio transmissionState:vector ETV
attr interpolationmode sample-hold
attr source transmissionStateChanged
attr title "Radio transmission state, vector"
vector 227 SensorNetwork.host[108].wlan[0].mac sentDownPk:vector(packetBytes) ETV
attr interpolationmode none
attr source packetSentToLower
attr title "packets sent to lower layer, vector(packetBytes)"
vector 228 SensorNetwork.host[150].wlan[0].radio receptionState:vector ETV
attr interpolationmode sample-hold
attr source receptionStateChanged
attr title "Radio reception state, vector"
vector 229 SensorNetwork.host[150].wlan[0].radio.energyConsumer powerConsumption:vector ETV
attr interpolationmode sample-hold
attr source powerConsumptionChanged
attr title "Power consumption, vector"
vector 230 SensorNetwork.host[150].energyStorage residualEnergyCapacity:vector ETV
attr interpolationmode linear
attr source residualEnergyCapacityChanged
attr title "Residual energy capacity, vector"
vector 231 SensorNetwork.host[150].energyStorage powerConsumption:vector ETV
attr interpolationmode sample-hold
attr source powerConsumptionChanged
attr title "Power consumption, vector"
vector 232 SensorNetwork.host[193].wlan[0].radio receptionState:vector ETV
attr interpolationmode sample-hold
attr source receptionStateChanged
attr title "Radio reception state, vector"
vector 233 SensorNetwork.host[193].wlan[0].radio.energyConsumer powerConsumption:vector ETV
attr interpolationmode sample-hold
attr source powerConsumptionChanged
attr title "Power consumption, vector"
vector 234 SensorNetwork.host[193].energyStorage residualEnergyCapacity:vector ETV
attr interpolationmode linear
attr source residualEnergyCapacityChanged
attr title "Residual energy capacity, vector"
vector 235 SensorNetwork.host[193].energyStorage powerConsumption:vector ETV
attr interpolationmode sample-hold
attr source powerConsumptionChanged
attr title "Power consumption, vector"
vector 236 SensorNetwork.host[53].wlan[0].radio receptionState:vector ETV
attr interpolationmode sample-hold
attr source receptionStateChanged
attr title "Radio reception state, vector"
vector 237 SensorNetwork.host[53].wlan[0].radio.energyConsumer powerConsumption:vector ETV
attr interpolationmode sample-hold
attr source powerConsumptionChanged
attr title "Power consumption, vector"
vector 238 SensorNetwork.host[53].energyStorage residualEnergyCapacity:vector ETV
attr interpolationmode linear
attr source residualEnergyCapacityChanged
attr title "Residual energy capacity, vector"
vector 239 SensorNetwork.host[53].energyStorage powerConsumption:vector ETV
attr interpolationmode sample-hold
attr source powerConsumptionChanged
attr title "Power consumption, vector"
vector 240 SensorNetwork.host[150].wlan[0].mac rcvdPkFromLL:vector(packetBytes) ETV
attr interpolationmode none
attr source packetReceivedFromLower
attr title "packets received from lower layer, vector(packetBytes)"
vector 241 SensorNetwork.host[150].wlan[0].mac passedUpPk:vector(packetBytes) ETV
attr interpolationmode none
attr source packetSentToUpper
attr title "packets passed to higher layer, vector(packetBytes)"
vector 242 SensorNetwork.host[193].wlan[0].mac rcvdPkFromLL:vector(packetBytes) ETV
attr interpolationmode none
attr source packetReceivedFromLower
attr title "packets received from lower layer, vector(packetBytes)"
vector 243 SensorNetwork.host[193].wlan[0].mac passedUpPk:vector(packetBytes) ETV
attr interpolationmode none
attr source packetSentToUpper
attr title "packets passed to higher layer, vector(packetBytes)"
vector 244 SensorNetwork.host[53].wlan[0].mac rcvdPkFromLL:vector(packetBytes) ETV
attr interpolationmode none
attr source packetReceivedFromLower
attr title "packets received from lower layer, vector(packetBytes)"
vector 245 SensorNetwork.host[53].wlan[0].mac passedUpPk:vector(packetBytes) ETV
attr interpolationmode none
attr source packetSentToUpper
attr title "packets passed to higher layer, vector(packetBytes)"
vector 246 SensorNetwork.host[80].wlan[0].queue rcvdPk:vector(packetBytes) ETV
attr interpolationmode none
attr title "received packets, vector(packetBytes)"
vector 247 SensorNetwork.host[80].wlan[0].queue queueingTime:vector ETV
attr interpolationmode none
attr title "queueing time, vector"
vector 248 SensorNetwork.host[80].wlan[0].mac rcvdPkFromHL:vector(packetBytes) ETV
attr interpolationmode none
attr source packetReceivedFromUpper
attr title "packets received from higher layer, vector(packetBytes)"
vector 249 SensorNetwork.host[80].wlan[0].radio radioMode:vector ETV
attr interpolationmode sample-hold
attr source radioModeChanged
attr title "Radio mode, vector"
vector 250 SensorNetwork.host[80].wlan[0].radio transmissionState:vector ETV
attr interpolationmode sample-hold
attr source transmissionStateChanged
attr title "Radio transmission state, vector"
vector 251 SensorNetwork.host[80].wlan[0].mac sentDownPk:vector(packetBytes) ETV
attr interpolationmode none
attr source packetSentToLower
attr title "packets sent to lower layer, vector(packetBytes)"
vector 252 SensorNetwork.host[195].wlan[0].radio receptionState:vector ETV
attr interpolationmode sample-hold
attr source receptionStateChanged
attr title "Radio reception state, vector"
vector 253 SensorNetwork.host[195].wlan[0].radio.energyConsumer powerConsumption:vector ETV
attr interpolationmode sample-hold
attr source powerConsumptionChanged
attr title "Power consumption, vector"
vector 254 SensorNetwork.host[195].energyStorage residualEnergyCapacity:vector ETV
attr interpolationmode linear
attr source residualEnergyCapacityChanged
attr title "Residual energy capacity, vector"
vector 255 SensorNetwork.host[195].energyStorage powerConsumption:vector ETV
attr interpolationmode sample-hold
attr source powerConsumptionChanged
attr title "Power consumption, vector"
vector 256 SensorNetwork.host[109].wlan[0].mac rcvdPkFromLL:vector(packetBytes) ETV
attr interpolationmode none
attr source packetReceivedFromLower
attr title "packets received from lower layer, vector(packetBytes)"
vector 257 SensorNetwork.host[109].wlan[0].mac passedUpPk:vector(packetBytes) ETV
attr interpolationmode none
attr source packetSentToUpper
attr title "packets passed to higher layer, vector(packetBytes)"
vector 258 SensorNetwork.host[195].wlan[0].mac rcvdPkFromLL:vector(packetBytes) ETV
attr interpolationmode none
attr source packetReceivedFromLower
attr title "packets received from lower layer, vector(packetBytes)"
vector 259 SensorNetwork.host[195].wlan[0].mac passedUpPk:vector(packetBytes) ETV
attr interpolationmode none
attr source packetSentToUpper
attr title "packets passed to higher layer, vector(packetBytes)"
vector 260 SensorNetwork.host[82].energyStorage residualEnergyCapacity:vector ETV
attr interpolationmode linear
attr source residualEnergyCapacityChanged
attr title "Residual energy capacity, vector"
vector 261 SensorNetwork.host[183].energyStorage residualEnergyCapacity:vector ETV
attr interpolationmode linear
attr source residualEnergyCapacityChanged
attr title "Residual energy capacity, vector"
vector 262 SensorNetwork.host[183].wlan[0].queue rcvdPk:vector(packetBytes) ETV
attr interpolationmode none
attr title "received packets, vector(packetBytes)"
vector 263 SensorNetwork.host[183].wlan[0].queue queueingTime:vector ETV
attr interpolationmode none
attr title "queueing time, vector"
vector 264 SensorNetwork.host[183].wlan[0].mac rcvdPkFromHL:vector(packetBytes) ETV
attr interpolationmode none
attr source packetReceivedFromUpper
attr title "packets received from higher layer, vector(packetBytes)"
vector 265 SensorNetwork.host[183].wlan[0].radio radioMode:vector ETV
attr interpolationmode sample-hold
attr source radioModeChanged
attr title "Radio mode, vector"
vector 266 SensorNetwork.host[183].wlan[0].radio.energyConsumer powerConsumption:vector ETV
attr interpolationmode sample-hold
attr source powerConsumptionChanged
attr title "Power consumption, vector"
vector 267 SensorNetwork.host[183].energyStorage powerConsumption:vector ETV
attr interpolationmode sample-hold
attr source powerConsumptionChanged
attr title "Power consumption, vector"
vector 268 SensorNetwork.host[183].wlan[0].radio receptionState:vector ETV
attr interpolationmode sample-hold
attr source receptionStateChanged
attr title "Radio reception state, vector"
vector 269 SensorNetwork.host[183].wlan[0].radio transmissionState:vector ETV
attr interpolationmode sample-hold
attr source transmissionStateChanged
attr title "Radio transmission state, vector"
vector 270 SensorNetwork.host[183].wlan[0].mac sentDownPk:vector(packetBytes) ETV
attr interpolationmode none
attr source packetSentToLower
attr title "packets sent to lower layer, vector(packetBytes)"
vector 271 SensorNetwork.host[189].wlan[0].queue rcvdPk:vector(packetBytes) ETV
attr interpolationmode none
attr title "received packets, vector(packetBytes)"
vector 272 SensorNetwork.host[189].wlan[0].queue queueingTime:vector ETV
attr interpolationmode none
attr title "queueing time, vector"
vector 273 SensorNetwork.host[189].wlan[0].mac rcvdPkFromHL:vector(packetBytes) ETV
attr interpolationmode none
attr source packetReceivedFromUpper
attr title "packets received from higher layer, vector(packetBytes)"
vector 274 SensorNetwork.host[189].wlan[0].radio radioMode:vector ETV
attr interpolationmode sample-hold
attr source radioModeChanged
attr title "Radio mode, vector"
vector 275 SensorNetwork.host[189].wlan[0].radio transmissionState:vector ETV
attr interpolationmode sample-hold
attr source transmissionStateChanged
attr title "Radio transmission state, vector"
vector 276 SensorNetwork.host[189].wlan[0].mac sentDownPk:vector(packetBytes) ETV
attr interpolationmode none
attr source packetSentToLower
attr title "packets sent to lower layer, vector(packetBytes)"
vector 277 SensorNetwork.host[70].wlan[0].radio receptionState:vector ETV
attr interpolationmode sample-hold
attr source receptionStateChanged
attr title "Radio reception state, vector"
vector 278 SensorNetwork.host[70].wlan[0].radio.energyConsumer powerConsumption:vector ETV
attr interpolationmode sample-hold
attr source powerConsumptionChanged
attr title "Power consumption, vector"
vector 279 SensorNetwork.host[70].energyStorage powerConsumption:vector ETV
attr interpolationmode sample-hold
attr source powerConsumptionChanged
attr title "Power consumption, vector"
vector 280 SensorNetwork.host[76].wlan[0].radio receptionState:vector ETV
attr interpolationmode sample-hold
attr source receptionStateChanged
attr title "Radio reception state, vector"
vector 281 SensorNetwork.host[76].wlan[0].radio.energyConsumer powerConsumption:vector ETV
attr interpolationmode sample-hold
attr source powerConsumptionChanged
attr title "Power consumption, vector"
vector 282 SensorNetwork.host[76].energyStorage residualEnergyCapacity:vector ETV
attr interpolationmode linear
attr source residualEnergyCapacityChanged
attr title "Residual energy capacity, vector"
vector 283 SensorNetwork.host[76].energyStorage powerConsumption:vector ETV
attr interpolationmode sample-hold
attr source powerConsumptionChanged
attr title "Power consumption, vector"
vector 284 SensorNetwork.host[70].wlan[0].mac rcvdPkFromLL:vector(packetBytes) ETV
attr interpolationmode none
attr source packetReceivedFromLower
attr title "packets received from lower layer, vector(packetBytes)"
vector 285 SensorNetwork.host[70].wlan[0].mac passedUpPk:vector(packetBytes) ETV
attr interpolationmode none
attr source packetSentToUpper
attr title "packets passed to higher layer, vector(packetBytes)"
vector 286 SensorNetwork.host[27].wlan[0].mac rcvdPkFromLL:vector(packetBytes) ETV
attr interpolationmode none
attr source packetReceivedFromLower
attr title "packets received from lower layer, vector(packetBytes)"
vector 287 SensorNetwork.host[27].wlan[0].mac passedUpPk:vector(packetBytes) ETV
attr interpolationmode none
attr source packetSentToUpper
attr title "packets passed to higher layer, vector(packetBytes)"
vector 288 SensorNetwork.host[76].wlan[0].mac rcvdPkFromLL:vector(packetBytes) ETV
attr interpolationmode none
attr source packetReceivedFromLower
attr title "packets received from lower layer, vector(packetBytes)"
vector 289 SensorNetwork.host[76].wlan[0].mac passedUpPk:vector(packetBytes) ETV
attr interpolationmode none
attr source packetSentToUpper
attr title "packets passed to higher layer, vector(packetBytes)"
vector 290 SensorNetwork.host[173].wlan[0].queue rcvdPk:vector(packetBytes) ETV
attr interpolationmode none
attr title "received packets, vector(packetBytes)"
vector 291 SensorNetwork.host[173].wlan[0].queue queueingTime:vector ETV
attr interpolationmode none
attr title "queueing time, vector"
vector 292 SensorNetwork.host[173].wlan[0].mac rcvdPkFromHL:vector(packetBytes) ETV
attr interpolationmode none
attr source packetReceivedFromUpper
attr title "packets received from higher layer, vector(packetBytes)"
vector 293 SensorNetwork.host[173].wlan[0].radio radioMode:vector ETV
attr interpolationmode sample-hold
attr source radioModeChanged
attr title "Radio mode, vector"
vector 294 SensorNetwork.host[173].wlan[0].radio transmissionState:vector ETV
attr interpolationmode sample-hold
attr source transmissionStateChanged
attr title "Radio transmission state, vector"
vector 295 SensorNetwork.host[173].wlan[0].mac sentDownPk:vector(packetBytes) ETV
attr interpolationmode none
attr source packetSentToLower
attr title "packets sent to lower layer, vector(packetBytes)"
vector 296 SensorNetwork.host[7].wlan[0].radio receptionState:vector ETV
attr interpolationmode sample-hold
attr source receptionStateChanged
attr title "Radio reception state, vector"
vector 297 SensorNetwork.host[7].wlan[0].radio.energyConsumer powerConsumption:vector ETV
attr interpolationmode sample-hold
attr source powerConsumptionChanged
attr title "Power consumption, vector"
vector 298 SensorNetwork.host[7].energyStorage residualEnergyCapacity:vector ETV
attr interpolationmode linear
attr source residualEnergyCapacityChanged
attr title "Residual energy capacity, vector"
vector 299 SensorNetwork.host[7].energyStorage powerConsumption:vector ETV
attr interpolationmode sample-hold
attr source powerConsumptionChanged
attr title "Power consumption, vector"
vector 300 SensorNetwork.host[7].wlan[0].mac rcvdPkFromLL:vector(packetBytes) ETV
attr interpolationmode none
attr source packetReceivedFromLower
attr title "packets received from lower layer, vector(packetBytes)"
vector 301 SensorNetwork.host[7].wlan[0].mac passedUpPk:vector(packetBytes) ETV
attr interpolationmode none
attr source packetSentToUpper
attr title "packets passed to higher layer, vector(packetBytes)"
vector 302 SensorNetwork.host[57].energyStorage residualEnergyCapacity:vector ETV
attr interpolationmode linear
attr source residualEnergyCapacityChanged
attr title "Residual energy capacity, vector"
vector 303 SensorNetwork.host[130].energyStorage residualEnergyCapacity:vector ETV
attr interpolationmode linear
attr source residualEnergyCapacityChanged
attr title "Residual energy capacity, vector"
vector 304 SensorNetwork.host[130].wlan[0].queue rcvdPk:vector(packetBytes) ETV
attr interpolationmode none
attr title "received packets, vector(packetBytes)"
vector 305 SensorNetwork.host[130].wlan[0].queue queueingTime:vector ETV
attr interpolationmode none
attr title "queueing time, vector"
vector 306 SensorNetwork.host[130].wlan[0].mac rcvdPkFromHL:vector(packetBytes) ETV
attr interpolationmode none
attr source packetReceivedFromUpper
attr title "packets received from higher layer, vector(packetBytes)"
vector 307 SensorNetwork.host[130].wlan[0].radio radioMode:vector ETV
attr interpolationmode sample-hold
attr source radioModeChanged
attr title "Radio mode, vector"
vector 308 SensorNetwork.host[130].wlan[0].radio.energyConsumer powerConsumption:vector ETV
attr interpolationmode sample-hold
attr source powerConsumptionChanged
attr title "Power consumption, vector"
vector 309 SensorNetwork.host[130].energyStorage powerConsumption:vector ETV
attr interpolationmode sample-hold
attr source powerConsumptionChanged
attr title "Power consumption, vector"
vector 310 SensorNetwork.host[130].wlan[0].radio receptionState:vector ETV
attr interpolationmode sample-hold
attr source receptionStateChanged
attr title "Radio reception state, vector"
vector 311 SensorNetwork.host[130].wlan[0].radio transmissionState:vector ETV
attr interpolationmode sample-hold
attr source transmissionStateChanged
attr title "Radio transmission state, vector"
vector 312 SensorNetwork.host[130].wlan[0].mac sentDownPk:vector(packetBytes) ETV
attr interpolationmode none
attr source packetSentToLower
attr title "packets sent to lower layer, vector(packetBytes)"
vector 313 SensorNetwork.host[113].wlan[0].radio receptionState:vector ETV
attr interpolationmode sample-hold
attr source receptionStateChanged
attr title "Radio reception state, vector"
vector 314 SensorNetwork.host[113].wlan[0].radio.energyConsumer powerConsumption:vector ETV
attr interpolationmode sample-hold
attr source powerConsumptionChanged
attr title "Power consumption, vector"
vector 315 SensorNetwork.host[113].energyStorage residualEnergyCapacity:vector ETV
attr interpolationmode linear
attr source residualEnergyCapacityChanged
attr title "Residual energy capacity, vector"
vector 316 SensorNetwork.host[113].energyStorage powerConsumption:vector ETV
attr interpolationmode sample-hold
attr source powerConsumptionChanged
attr title "Power consumption, vector"
vector 317 SensorNetwork.host[113].wlan[0].mac rcvdPkFromLL:vector(packetBytes) ETV
attr interpolationmode none
attr source packetReceivedFromLower
attr title "packets received from lower layer, vector(packetBytes)"
vector 318 SensorNetwork.host[113].wlan[0].mac passedUpPk:vector(packetBytes) ETV
attr interpolationmode none
attr source packetSentToUpper
attr title "packets passed to higher layer, vector(packetBytes)"
vector 319 SensorNetwork.host[62].energyStorage residualEnergyCapacity:vector ETV
attr interpolationmode linear
attr source residualEnergyCapacityChanged
attr title "Residual energy capacity, vector"
vector 320 SensorNetwork.host[100].energyStorage residualEnergyCapacity:vector ETV
attr interpolationmode linear
attr source residualEnergyCapacityChanged
attr title "Residual energy capacity, vector"
vector 321 SensorNetwork.host[100].wlan[0].queue rcvdPk:vector(packetBytes) ETV
attr interpolationmode none
attr title "received packets, vector(packetBytes)"
vector 322 SensorNetwork.host[100].wlan[0].queue queueingTime:vector ETV
attr interpolationmode none
attr title "queueing time, vector"
vector 323 SensorNetwork.host[100].wlan[0].mac rcvdPkFromHL:vector(packetBytes) ETV
attr interpolationmode none
attr source packetReceivedFromUpper
attr title "packets received from higher layer, vector(packetBytes)"
vector 324 SensorNetwork.host[100].wlan[0].radio radioMode:vector ETV
attr interpolationmode sample-hold
attr source radioModeChanged
attr title "Radio mode, vector"
vector 325 SensorNetwork.host[100].wlan[0].radio.energyConsumer powerConsumption:vector ETV
attr interpolationmode sample-hold
attr source powerConsumptionChanged
attr title "Power consumption, vector"
vector 326 SensorNetwork.host[100].energyStorage powerConsumption:vector ETV
attr interpolationmode sample-hold
attr source powerConsumptionChanged
attr title "Power consumption, vector"
vector 327 SensorNetwork.host[100].wlan[0].radio receptionState:vector ETV
attr interpolationmode sample-hold
attr source receptionStateChanged
attr title "Radio reception state, vector"
vector 328 SensorNetwork.host[100].wlan[0].radio transmissionState:vector ETV
attr interpolationmode sample-hold
attr source transmissionStateChanged
attr title "Radio transmission state, vector"
vector 329 SensorNetwork.host[100].wlan[0].mac sentDownPk:vector(packetBytes) ETV
attr interpolationmode none
attr source packetSentToLower
attr title "packets sent to lower layer, vector(packetBytes)"
vector 330 SensorNetwork.host[169].wlan[0].radio receptionState:vector ETV
attr interpolationmode sample-hold
attr source receptionStateChanged
attr title "Radio reception state, vector"
vector 331 SensorNetwork.host[169].wlan[0].radio.energyConsumer powerConsumption:vector ETV
attr interpolationmode sample-hold
attr source powerConsumptionChanged
attr title "Power consumption, vector"
vector 332 SensorNetwork.host[169].energyStorage residualEnergyCapacity:vector ETV
attr interpolationmode linear
attr source residualEnergyCapacityChanged
attr title "Residual energy capacity, vector"
vector 333 SensorNetwork.host[169].energyStorage powerConsumption:vector ETV
attr interpolationmode sample-hold
attr source powerConsumptionChanged
attr title "Power consumption, vector"
vector 334 SensorNetwork.host[169].wlan[0].mac rcvdPkFromLL:vector(packetBytes) ETV
attr interpolationmode none
attr source packetReceivedFromLower
attr title "packets received from lower layer, vector(packetBytes)"
vector 335 SensorNetwork.host[169].wlan[0].mac passedUpPk:vector(packetBytes) ETV
attr interpolationmode none
attr source packetSentToUpper
attr title "packets passed to higher layer, vector(packetBytes)"
vector 336 SensorNetwork.host[169].wlan[0].queue rcvdPk:vector(packetBytes) ETV
attr interpolationmode none
attr title "received packets, vector(packetBytes)"
vector 337 SensorNetwork.host[169].wlan[0].queue queueingTime:vector ETV
attr interpolationmode none
attr title "queueing time, vector"
vector 338 SensorNetwork.host[169].wlan[0].mac rcvdPkFromHL:vector(packetBytes) ETV
attr interpolationmode none
attr source packetReceivedFromUpper
attr title "packets received from higher layer, vector(packetBytes)"
vector 339 SensorNetwork.host[169].wlan[0].radio radioMode:vector ETV
attr interpolationmode sample-hold
attr source radioModeChanged
attr title "Radio mode, vector"
vector 340 SensorNetwork.host[169].wlan[0].radio transmissionState:vector ETV
attr interpolationmode sample-hold
attr source transmissionStateChanged
attr title "Radio transmission state, vector"
vector 341 SensorNetwork.host[169].wlan[0].mac sentDownPk:vector(packetBytes) ETV
attr interpolationmode none
attr source packetSentToLower
attr title "packets sent to lower layer, vector(packetBytes)"
vector 342 SensorNetwork.host[175].wlan[0].radio receptionState:vector ETV
attr interpolationmode sample-hold
attr source receptionStateChanged
attr title "Radio reception state, vector"
vector 343 SensorNetwork.host[175].wlan[0].radio.energyConsumer powerConsumption:vector ETV
attr interpolationmode sample-hold
attr source powerConsumptionChanged
attr title "Power consumption, vector"
vector 344 SensorNetwork.host[175].energyStorage residualEnergyCapacity:vector ETV
attr interpolationmode linear
attr source residualEnergyCapacityChanged
attr title "Residual energy capacity, vector"
vector 345 SensorNetwork.host[175].energyStorage powerConsumption:vector ETV
attr interpolationmode sample-hold
attr source powerConsumptionChanged
attr title "Power consumption, vector"
vector 346 SensorNetwork.host[55].wlan[0].radio receptionState:vector ETV
attr interpolationmode sample-hold
attr source receptionStateChanged
attr title "Radio reception state, vector"
vector 347 SensorNetwork.host[55].wlan[0].radio.energyConsumer powerConsumption:vector ETV
attr interpolationmode sample-hold
attr source powerConsumptionChanged
attr title "Power consumption, vector"
vector 348 SensorNetwork.host[55].energyStorage residualEnergyCapacity:vector ETV
attr interpolationmode linear
attr source residualEnergyCapacityChanged
attr title "Residual energy capacity, vector"
vector 349 SensorNetwork.host[55].energyStorage powerConsumption:vector ETV
attr interpolationmode sample-hold
attr source powerConsumptionChanged
attr title "Power consumption, vector"
vector 350 SensorNetwork.host[141].energyStorage residualEnergyCapacity:vector ETV
attr interpolationmode linear
attr source residualEnergyCapacityChanged
attr title "Residual energy capacity, vector"
vector 351 SensorNetwork.host[141].wlan[0].queue rcvdPk:vector(packetBytes) ETV
attr interpolationmode none
attr title "received packets, vector(packetBytes)"
vector 352 SensorNetwork.host[141].wlan[0].queue queueingTime:vector ETV
attr interpolationmode none
attr title "queueing time, vector"
vector 353 SensorNetwork.host[141].wlan[0].mac rcvdPkFromHL:vector(packetBytes) ETV
attr interpolationmode none
attr source packetReceivedFromUpper
attr title "packets received from higher layer, vector(packetBytes)"
vector 354 SensorNetwork.host[141].wlan[0].radio radioMode:vector ETV
attr interpolationmode sample-hold
attr source radioModeChanged
attr title "Radio mode, vector"
vector 355 SensorNetwork.host[141].wlan[0].radio.energyConsumer powerConsumption:vector ETV
attr interpolationmode sample-hold
attr source powerConsumptionChanged
attr title "Power consumption, vector"
vector 356 SensorNetwork.host[141].energyStorage powerConsumption:vector ETV
attr interpolationmode sample-hold
attr source powerConsumptionChanged
attr title "Power consumption, vector"
vector 357 SensorNetwork.host[141].wlan[0].radio receptionState:vector ETV
attr interpolationmode sample-hold
attr source receptionStateChanged
attr title "Radio reception state, vector"
vector 358 SensorNetwork.host[141].wlan[0].radio transmissionState:vector ETV
attr interpolationmode sample-hold
attr source transmissionStateChanged
attr title "Radio transmission state, vector"
vector 359 SensorNetwork.host[141].wlan[0].mac sentDownPk:vector(packetBytes) ETV
attr interpolationmode none
attr source packetSentToLower
attr title "packets sent to lower layer, vector(packetBytes)"
vector 360 SensorNetwork.host[21].wlan[0].radio receptionState:vector ETV
attr interpolationmode sample-hold
attr source receptionStateChanged
attr title "Radio reception state, vector"
vector 361 SensorNetwork.host[21].wlan[0].radio.energyConsumer powerConsumption:vector ETV
attr interpolationmode sample-hold
attr source powerConsumptionChanged
attr title "Power consumption, vector"
vector 362 SensorNetwork.host[21].energyStorage residualEnergyCapacity:vector ETV
attr interpolationmode linear
attr source residualEnergyCapacityChanged
attr title "Residual energy capacity, vector"
vector 363 SensorNetwork.host[21].energyStorage powerConsumption:vector ETV
attr interpolationmode sample-hold
attr source powerConsumptionChanged
attr title "Power consumption, vector"
vector 364 SensorNetwork.host[100].wlan[0].mac rcvdPkFromLL:vector(packetBytes) ETV
attr interpolationmode none
attr source packetReceivedFromLower
attr title "packets received from lower layer, vector(packetBytes)"
vector 365 SensorNetwork.host[100].wlan[0].mac passedUpPk:vector(packetBytes) ETV
attr interpolationmode none
attr source packetSentToUpper
attr title "packets passed to higher layer, vector(packetBytes)"
vector 366 SensorNetwork.host[175].wlan[0].mac rcvdPkFromLL:vector(packetBytes) ETV
attr interpolationmode none
attr source packetReceivedFromLower
attr title "packets received from lower layer, vector(packetBytes)"
vector 367 SensorNetwork.host[175].wlan[0].mac passedUpPk:vector(packetBytes) ETV
attr interpolationmode none
attr source packetSentToUpper
attr title "packets passed to higher layer, vector(packetBytes)"
vector 368 SensorNetwork.host[55].wlan[0].mac rcvdPkFromLL:vector(packetBytes) ETV
attr interpolationmode none
attr source packetReceivedFromLower
attr title "packets received from lower layer, vector(packetBytes)"
vector 369 SensorNetwork.host[55].wlan[0].mac passedUpPk:vector(packetBytes) ETV
attr interpolationmode none
attr source packetSentToUpper
attr title "packets passed to higher layer, vector(packetBytes)"
vector 370 SensorNetwork.host[21].wlan[0].mac rcvdPkFromLL:vector(packetBytes) ETV
attr interpolationmode none
attr source packetReceivedFromLower
attr title "packets received from lower layer, vector(packetBytes)"
vector 371 SensorNetwork.host[21].wlan[0].mac passedUpPk:vector(packetBytes) ETV
attr interpolationmode none
attr source packetSentToUpper
attr title "packets passed to higher layer, vector(packetBytes)"
vector 372 SensorNetwork.host[19].energyStorage residualEnergyCapacity:vector ETV
attr interpolationmode linear
attr source residualEnergyCapacityChanged
attr title "Residual energy capacity, vector"
vector 373 SensorNetwork.host[19].wlan[0].queue rcvdPk:vector(packetBytes) ETV
attr interpolationmode none
attr title "received packets, vector(packetBytes)"
vector 374 SensorNetwork.host[19].wlan[0].queue queueingTime:vector ETV
attr interpolationmode none
attr title "queueing time, vector"
vector 375 SensorNetwork.host[19].wlan[0].mac rcvdPkFromHL:vector(packetBytes) ETV
attr interpolationmode none
attr source packetReceivedFromUpper
attr title "packets received from higher layer, vector(packetBytes)"
vector 376 SensorNetwork.host[19].wlan[0].radio radioMode:vector ETV
attr interpolationmode sample-hold
attr source radioModeChanged
attr title "Radio mode, vector"
vector 377 SensorNetwork.host[19].wlan[0].radio.energyConsumer powerConsumption:vector ETV
attr interpolationmode sample-hold
attr source powerConsumptionChanged
attr title "Power consumption, vector"
vector 378 SensorNetwork.host[19].energyStorage powerConsumption:vector ETV
attr interpolationmode sample-hold
attr source powerConsumptionChanged
attr title "Power consumption, vector"
vector 379 SensorNetwork.host[19].wlan[0].radio receptionState:vector ETV
attr interpolationmode sample-hold
attr source receptionStateChanged
attr title "Radio reception state, vector"
vector 380 SensorNetwork.host[19].wlan[0].radio transmissionState:vector ETV
attr interpolationmode sample-hold
attr source transmissionStateChanged
attr title "Radio transmission state, vector"
vector 381 SensorNetwork.host[19].wlan[0].mac sentDownPk:vector(packetBytes) ETV
attr interpolationmode none
attr source packetSentToLower
attr title "packets sent to lower layer, vector(packetBytes)"
vector 382 SensorNetwork.host[170].wlan[0].radio receptionState:vector ETV
attr interpolationmode sample-hold
attr source receptionStateChanged
attr title "Radio reception state, vector"
vector 383 SensorNetwork.host[170].wlan[0].radio.energyConsumer powerConsumption:vector ETV
attr interpolationmode sample-hold
attr source powerConsumptionChanged
attr title "Power consumption, vector"
vector 384 SensorNetwork.host[170].energyStorage residualEnergyCapacity:vector ETV
attr interpolationmode linear
attr source residualEnergyCapacityChanged
attr title "Residual energy capacity, vector"
vector 385 SensorNetwork.host[170].energyStorage powerConsumption:vector ETV
attr interpolationmode sample-hold
attr source powerConsumptionChanged
attr title "Power consumption, vector"
vector 386 SensorNetwork.host[60].wlan[0].radio receptionState:vector ETV
attr interpolationmode sample-hold
attr source receptionStateChanged
attr title "Radio reception state, vector"
vector 387 SensorNetwork.host[60].wlan[0].radio.energyConsumer powerConsumption:vector ETV
attr interpolationmode sample-hold
attr source powerConsumptionChanged
attr title "Power consumption, vector"
vector 388 SensorNetwork.host[60].energyStorage residualEnergyCapacity:vector ETV
attr interpolationmode linear
attr source residualEnergyCapacityChanged
attr title "Residual energy capacity, vector"
vector 389 SensorNetwork.host[60].energyStorage powerConsumption:vector ETV
attr interpolationmode sample-hold
attr source powerConsumptionChanged
attr title "Power consumption, vector"
vector 390 SensorNetwork.host[170].wlan[0].mac rcvdPkFromLL:vector(packetBytes) ETV
attr interpolationmode none
attr source packetReceivedFromLower
attr title "packets received from lower layer, vector(packetBytes)"
vector 391 SensorNetwork.host[170].wlan[0].mac passedUpPk:vector(packetBytes) ETV
attr interpolationmode none
attr source packetSentToUpper
attr title "packets passed to higher layer, vector(packetBytes)"
vector 392 SensorNetwork.host[60].wlan[0].mac rcvdPkFromLL:vector(packetBytes) ETV
attr interpolationmode none
attr source packetReceivedFromLower
attr title "packets received from lower layer, vector(packetBytes)"
vector 393 SensorNetwork.host[60].wlan[0].mac passedUpPk:vector(packetBytes) ETV
attr interpolationmode none
attr source packetSentToUpper
attr title "packets passed to higher layer, vector(packetBytes)"
vector 394 SensorNetwork.host[153].energyStorage residualEnergyCapacity:vector ETV
attr interpolationmode linear
attr source residualEnergyCapacityChanged
attr title "Residual energy capacity, vector"
vector 395 SensorNetwork.host[153].wlan[0].queue rcvdPk:vector(packetBytes) ETV
attr interpolationmode none
attr title "received packets, vector(packetBytes)"
vector 396 SensorNetwork.host[153].wlan[0].queue queueingTime:vector ETV
attr interpolationmode none
attr title "queueing time, vector"
vector 397 SensorNetwork.host[153].wlan[0].mac rcvdPkFromHL:vector(packetBytes) ETV
attr interpolationmode none
attr source packetReceivedFromUpper
attr title "packets received from higher layer, vector(packetBytes)"
vector 398 SensorNetwork.host[153].wlan[0].radio radioMode:vector ETV
attr interpolationmode sample-hold
attr source radioModeChanged
[...]
2093	52644514 1530 8154691 11476114 103.369596522966 162.251012263896 46 28 28 1288 36064
2094	52646044 1796 8173116 11469940 103.638319257876 162.072690754338 54 28 28 1512 42336
2095	52647840 1742 8173116 11469940 103.638319257876 162.072690754338 54 0 0 0 0
2096	52649582 1796 8173117 11469941 103.638319257876 162.072690754338 54 28 28 1512 42336
2097	52651378 3484 8173117 11470142 103.638319257876 162.072914754338 108 2 3 270 702
2098	52654862 6968 8173117 11470142 103.638319257876 162.072914754338 216 0 2 216 324
2099	52661830 1796 8173117 11469941 103.638319257876 162.072690754338 54 28 28 1512 42336
2100	52663626 294 8179247 8717694 103.730434313814 112.112691632102 9 28 28 252 7056
2101	52663920 285 8179247 8717694 103.730434313814 112.112691632102 9 0 0 0 0
2102	52664205 294 8179248 8717695 103.730434313814 112.112691632102 9 28 28 252 7056
2103	52664499 601 8179248 8727587 103.730434313814 112.30155155634 19 0 3 45 117
2104	52665100 1140 8179248 8717896 103.730434313814 112.112915632102 36 0 2 36 54
2105	52666240 294 8179248 8717695 103.730434313814 112.112691632102 9 28 28 252 7056
2106	52666534 1534 8165449 11487505 103.527824060109 162.499369410804 46 28 28 1288 36064
2107	52668068 1488 8165449 11487505 103.527824060109 162.499369410804 46 0 0 0 0
2108	52669556 1534 8165450 11487506 103.527824060109 162.499369410804 46 28 28 1288 36064
2109	52671090 2976 8165450 11487707 103.527824060109 162.499593410804 92 2 3 230 598
2110	52674066 5952 8165450 11487707 103.527824060109 162.499593410804 184 0 2 184 276
2111	52680018 1534 8165450 11487506 103.527824060109 162.499369410804 46 28 28 1288 36064
2112	52681552 2073 8170295 9764650 103.597723303344 129.676089118746 63 28 28 1764 49392
2113	52683625 2073 8170295 9764650 103.597723303344 129.676089118746 63 28 28 1764 49392
2114	52685698 164 8167359 8507296 103.548801434761 108.791778722597 5 28 28 140 3920
2115	52685862 159 8167359 8507296 103.548801434761 108.791778722597 5 0 0 0 0
2116	52686021 164 8167360 8507297 103.548801434761 108.791778722597 5 28 28 140 3920
2117	52686185 350 8167360 8588745 103.548801434761 110.071230745536 11 0 3 25 65
2118	52686535 636 8167360 8507498 103.548801434761 108.792002722597 20 0 2 20 30
2119	52687171 164 8167360 8507297 103.548801434761 108.791778722597 5 28 28 140 3920
2120	52687335 1534 8168888 11490662 103.562366830333 162.553588442548 46 28 28 1288 36064
2121	52688869 1488 8168888 11490662 103.562366830333 162.553588442548 46 0 0 0 0
2122	52690357 1534 8168889 11490663 103.562366830333 162.553588442548 46 28 28 1288 36064
2123	52691891 2976 8168889 11490865 103.562366830333 162.553812442548 92 2 3 230 598
2124	52694867 5952 8168889 11490865 103.562366830333 162.553812442548 184 0 2 184 276
2125	52700819 1534 8168889 11490663 103.562366830333 162.553588442548 46 28 28 1288 36064
2136	52702353 1794 8184622 11478272 103.793437288768 162.315268951584 54 28 28 1512 42336
2137	52704147 1740 8184622 11478272 103.793437288768 162.315268951584 54 0 0 0 0
2138	52705887 1794 8184623 11478273 103.793437288768 162.315268951584 54 28 28 1512 42336
2139	52707681 3480 8184623 11478475 103.793437288768 162.315492951584 108 2 3 270 702
2140	52711161 6960 8184623 11478475 103.793437288768 162.315492951584 216 0 2 216 324
2141	52718121 1794 8184623 11478273 103.793437288768 162.315268951584 54 28 28 1512 42336
2142	52719915 3231 8154898 11508228 103.369820528381 162.884198793797 97 28 28 2716 76048
2143	52723146 3231 8154898 11508228 103.369820528381 162.884198793797 97 28 28 2716 76048
2144	52726377 1802 8185372 11479304 103.797631130822 162.321827406711 54 28 28 1512 42336
2145	52728179 1748 8185372 11479304 103.797631130822 162.321827406711 54 0 0 0 0
2146	52729927 1802 8185373 11479305 103.797631130822 162.321827406711 54 28 28 1512 42336
2147	52731729 3496 8185373 11479507 103.797631130822 162.322051406711 108 2 3 270 702
2148	52735225 36675 8153560 11507041 103.3634676825 162.868637047712 1056 0 0.1 7.7459999999999 0.555012
2149	52771900 36675 8153560 11507041 103.3634676825 162.868637047712 1056 0 0.1 7.7459999999999 0.555012
2150	52808575 11790 8153560 11507041 103.3634676825 162.868637047712 366 0 3 570 1344
2151	52820365 6992 8185373 11479507 103.797631130822 162.322051406711 216 0 2 216 324
2152	52827357 1802 8185373 11479305 103.797631130822 162.321827406711 54 28 28 1512 42336
2159	52829159 1601 8184996 11458274 103.795492772412 161.871542299833 48 28 28 1344 37632
2160	52830760 1553 8184996 11458274 103.795492772412 161.871542299833 48 0 0 0 0
2161	52832313 1601 8184997 11458275 103.795492772412 161.871542299833 48 28 28 1344 37632
2162	52833914 3106 8184997 11458476 103.795492772412 161.871766299833 96 2 3 240 624
2163	52837020 6212 8184997 11458476 103.795492772412 161.871766299833 192 0 2 192 288
2164	52843232 1601 8184997 11458275 103.795492772412 161.871542299833 48 28 28 1344 37632
2165	52844833 1535 8183456 11508020 103.772854905913 162.883974789028 46 28 28 1288 36064
2166	52846368 1489 8183456 11508020 103.772854905913 162.883974789028 46 0 0 0 0
2167	52847857 1535 8183457 11508021 103.772854905913 162.883974789028 46 28 28 1288 36064
2168	52849392 2978 8183457 11508222 103.772854905913 162.884198789028 92 2 3 230 598
2169	52852370 5956 8183457 11508222 103.772854905913 162.884198789028 184 0 2 184 276
2170	52858326 1535 8183457 11508021 103.772854905913 162.883974789028 46 28 28 1288 36064
2171	52859861 1535 8186721 11510180 103.806403554831 162.936633427836 46 28 28 1288 36064
2172	52861396 1489 8186721 11510180 103.806403554831 162.936633427836 46 0 0 0 0
2173	52862885 1535 8186722 11510181 103.806403554831 162.936633427836 46 28 28 1288 36064
2174	52864420 2978 8186722 11510383 103.806403554831 162.936857427836 92 2 3 230 598
2175	52867398 5956 8186722 11510383 103.806403554831 162.936857427836 184 0 2 184 276
2176	52873354 1535 8186722 11510181 103.806403554831 162.936633427836 46 28 28 1288 36064
2177	52874889 1435 8185965 11500486 103.800742805066 162.714677910644 43 28 28 1204 33712
2178	52876324 1392 8185965 11500486 103.800742805066 162.714677910644 43 0 0 0 0
2179	52877716 1435 8185966 11500487 103.800742805066 162.714677910644 43 28 28 1204 33712
2180	52879151 2784 8185966 11500689 103.800742805066 162.714901910644 86 2 3 215 559
2181	52881935 5568 8185966 11500689 103.800742805066 162.714901910644 172 0 2 172 258
2182	52887503 1435 8185966 11500487 103.800742805066 162.714677910644 43 28 28 1204 33712
2199	52888938 1374 8198876 11446545 104.00324957085 161.626671630375 42 28 28 1176 32928
2200	52890312 1332 8198876 11446545 104.00324957085 161.626671630375 42 0 0 0 0
2201	52891644 1374 8198877 11446546 104.00324957085 161.626671630375 42 28 28 1176 32928
2202	52893018 2664 8198877 11446747 104.00324957085 161.626895630375 84 2 3 210 546
2203	52895682 5328 8198877 11446747 104.00324957085 161.626895630375 168 0 2 168 252
2204	52901010 1374 8198877 11446546 104.00324957085 161.626671630375 42 28 28 1176 32928
2205	52902384 13831 8190100 11502474 103.831225855704 162.749974861985 296 0.45787559126969 0.57693523328225 154.12707360011 80.515280265321
2206	52916215 1601 8210014 11486814 104.192208356292 162.490229698503 48 28 28 1344 37632
2207	52917816 1553 8210014 11486814 104.192208356292 162.490229698503 48 0 0 0 0
2208	52919369 1601 8210015 11486815 104.192208356292 162.490229698503 48 28 28 1344 37632
2209	52920970 3106 8210015 11487017 104.192208356292 162.490453698503 96 2 3 240 624
2210	52924076 29740 8190100 11502474 103.831225855704 162.749974861985 856 0 0.1 6.5959999999999 0.491112
2211	52953816 29740 8190100 11502474 103.831225855704 162.749974861985 856 0 0.1 6.5959999999999 0.491112
2212	52983556 9166 8190100 11502474 103.831225855704 162.749974861985 284 0 3 424 988
2213	52992722 6212 8210015 11487017 104.192208356292 162.490453698503 192 0 2 192 288
2214	52998934 1601 8210015 11486815 104.192208356292 162.490229698503 48 28 28 1344 37632
2215	53000535 1401 8212726 11466738 104.245988885738 162.003901646755 42 28 28 1176 32928
2216	53001936 1359 8212726 11466738 104.245988885738 162.003901646755 42 0 0 0 0
2217	53003295 1401 8212727 11466739 104.245988885738 162.003901646755 42 28 28 1176 32928
2218	53004696 2718 8212727 11466941 104.245988885738 162.004125646755 84 2 3 210 546
2219	53007414 5436 8212727 11466941 104.245988885738 162.004125646755 168 0 2 168 252
2220	53012850 1401 8212727 11466739 104.245988885738 162.003901646755 42 28 28 1176 32928
2221	53014251 1427 8235445 11505517 104.58267860525 162.83125909425 45 28 28 1260 35280
2222	53015678 1382 8235445 11505517 104.58267860525 162.83125909425 45 0 0 0 0
2223	53017060 1427 8235446 11505518 104.58267860525 162.83125909425 45 28 28 1260 35280
2224	53018487 2764 8235446 11505719 104.58267860525 162.83148309425 90 2 3 225 585
2225	53021251 31495 8173121 11505719 103.638319264501 162.83148309425 926 0 0.1 6.6159999999999 0.463752
2226	53052746 31495 8173121 11505719 103.638319264501 162.83148309425 926 0 0.1 6.6159999999999 0.463752
2227	53084241 10452 8173121 11505719 103.638319264501 162.83148309425 328 0 3 521 1235
2228	53094693 5528 8235446 11505719 104.58267860525 162.83148309425 180 0 2 180 270
2229	53100221 1427 8235446 11505518 104.58267860525 162.83125909425 45 28 28 1260 35280
2230	53101648 2081 8462473 11450651 108.063444934961 161.707082660325 62 28 28 1736 48608
2231	53103729 2081 8462473 11450651 108.063444934961 161.707082660325 62 28 28 1736 48608
2232	53105810 1596 8176186 11482847 103.675283809522 162.38297464142 48 28 28 1344 37632
2233	53107406 1548 8176186 11482847 103.675283809522 162.38297464142 48 0 0 0 0
2234	53108954 1596 8176187 11482848 103.675283809522 162.38297464142 48 28 28 1344 37632
2235	53110550 3096 8176187 11483049 103.675283809522 162.38319864142 96 2 3 240 624
2236	53113646 6192 8176187 11483049 103.675283809522 162.38319864142 192 0 2 192 288
2237	53119838 1596 8176187 11482848 103.675283809522 162.38297464142 48 28 28 1344 37632
2238	53121434 1501 8170088 11468504 103.597499296746 162.037114284654 45 28 28 1260 35280
2239	53122935 1456 8170088 11468504 103.597499296746 162.037114284654 45 0 0 0 0
2240	53124391 1501 8170089 11468505 103.597499296746 162.037114284654 45 28 28 1260 35280
2241	53125892 2912 8170089 11468706 103.597499296746 162.037338284654 90 2 3 225 585
2242	53128804 5824 8170089 11468706 103.597499296746 162.037338284654 180 0 2 180 270
2243	53134628 1501 8170089 11468505 103.597499296746 162.037114284654 45 28 28 1260 35280
2244	53136129 1456 8170460 11468843 103.59790026846 162.03774144554 45 28 28 1260 35280
2245	53137585 1411 8170460 11468843 103.59790026846 162.03774144554 45 0 0 0 0
2246	53138996 1456 8170461 11468844 103.59790026846 162.03774144554 45 28 28 1260 35280
2247	53140452 2822 8170461 11469045 103.59790026846 162.03796544554 90 2 3 225 585
2248	53143274 5644 8170461 11469045 103.59790026846 162.03796544554 180 0 2 180 270
2249	53148918 1456 8170461 11468844 103.59790026846 162.03774144554 45 28 28 1260 35280
2252	53150374 1349 8159643 11509826 103.4234483983 162.9273502165 43 28 28 1204 33712
2253	53151723 1306 8159643 11509826 103.4234483983 162.9273502165 43 0 0 0 0
2254	53153029 1349 8159644 11509827 103.4234483983 162.9273502165 43 28 28 1204 33712
2255	53154378 2612 8159644 11510028 103.4234483983 162.9275742165 86 2 3 215 559
2256	53156990 5224 8159644 11510028 103.4234483983 162.9275742165 172 0 2 172 258
2257	53162214 1349 8159644 11509827 103.4234483983 162.9273502165 43 28 28 1204 33712
2258	53163563 994 8164312 10574102 103.513319982589 144.635049838686 30 28 28 840 23520
2259	53164557 964 8164312 10574102 103.513319982589 144.635049838686 30 0 0 0 0
2260	53165521 994 8164313 10574103 103.513319982589 144.635049838686 30 28 28 840 23520
2261	53166515 1961 8164313 10640856 103.513319982589 145.871209856672 61 0 3 150 390
2262	53168476 3856 8164313 10574305 103.513319982589 144.635273838686 120 0 2 120 180
2263	53172332 994 8164313 10574103 103.513319982589 144.635049838686 30 28 28 840 23520
2264	53173326 1374 8176599 11463179 103.692711608425 161.93108388165 42 28 28 1176 32928
2265	53174700 1332 8176599 11463179 103.692711608425 161.93108388165 42 0 0 0 0
2266	53176032 1374 8176600 11463180 103.692711608425 161.93108388165 42 28 28 1176 32928
2267	53177406 2664 8176600 11463381 103.692711608425 161.93130788165 84 2 3 210 546
2268	53180070 5328 8176600 11463381 103.692711608425 161.93130788165 168 0 2 168 252
2269	53185398 1374 8176600 11463180 103.692711608425 161.93108388165 42 28 28 1176 32928
2272	53186772 3392 8152972 11481650 103.34838435774 162.360996371454 102 28 28 2856 79968
2273	53190164 3392 8152972 11481650 103.34838435774 162.360996371454 102 28 28 2856 79968
2274	53193556 2544 8197092 11510385 103.951903372304 162.936857434016 76 28 28 2128 59584
2275	53196100 2544 8197092 11510385 103.951903372304 162.936857434016 76 28 28 2128 59584
2276	53198644 2919 8191260 10905242 103.847305898958 150.847891689836 88 28 28 2464 68992
2277	53201563 2919 8191260 10905242 103.847305898958 150.847891689836 88 28 28 2464 68992
2278	53204482 4038 8181758 11463037 103.754805939121 161.927433123644 121 28 28 3388 94864
2279	53208520 4038 8181758 11463037 103.754805939121 161.927433123644 121 28 28 3388 94864
2280	53212558 3085 8162133 11089352 103.453572149715 154.457802534248 93 28 28 2604 72912
2281	53215643 3085 8162133 11089352 103.453572149715 154.457802534248 93 28 28 2604 72912
2282	53218728 2281 8210600 11505721 104.197021362186 162.83148310035 68 28 28 1904 53312
2283	53221009 2281 8210600 11505721 104.197021362186 162.83148310035 68 28 28 1904 53312
2286	53223290 3327 8182900 11435053 103.768331874418 161.39730559846 100 28 28 2800 78400
2287	53226617 3327 8182900 11435053 103.768331874418 161.39730559846 100 28 28 2800 78400
2288	53229944 2199 8477804 11487019 108.336371131241 162.49045370125 66 28 28 1848 51744
2289	53232143 2199 8477804 11487019 108.336371131241 162.49045370125 66 28 28 1848 51744
2290	53234342 3124 8190477 11502475 103.831449855704 162.749974861985 94 28 28 2632 73696
2291	53237466 3124 8190477 11502475 103.831449855704 162.749974861985 94 28 28 2632 73696
2294	53240590 3434 8161365 11508232 103.438624704395 162.884198795508 103 28 28 2884 80752
2295	53244024 3434 8161365 11508232 103.438624704395 162.884198795508 103 28 28 2884 80752
2298	53247458 2418 8197903 11508577 103.971348953829 162.885911518905 73 28 28 2044 57232
2299	53249876 2418 8197903 11508577 103.971348953829 162.885911518905 73 28 28 2044 57232
2300	53252294 4098 8215259 11496068 104.285543734664 162.613807233638 123 28 28 3444 96432
2301	53256392 4098 8215259 11496068 104.285543734664 162.613807233638 123 28 28 3444 96432
2302	53260490 4078 8169495 11500332 103.571294082443 162.707636047557 122 28 28 3416 95648
2303	53264568 4078 8169495 11500332 103.571294082443 162.707636047557 122 28 28 3416 95648
2306	53268646 2362 8411832 11490168 107.325651903688 162.543677586231 71 28 28 1988 55664
2307	53271008 2362 8411832 11490168 107.325651903688 162.543677586231 71 28 28 1988 55664
2308	53273370 4276 8153768 11507042 103.3636916825 162.868637047712 129 28 28 3612 101136
2309	53277646 4276 8153768 11507042 103.3636916825 162.868637047712 129 28 28 3612 101136
2310	53281922 2033 8150677 11200237 103.314234263392 156.680925063865 61 28 28 1708 47824
2311	53283955 2033 8150677 11200237 103.314234263392 156.680925063865 61 28 28 1708 47824
2314	53285988 3963 8173324 11504269 103.638543264501 162.783584114903 119 28 28 3332 93296
2315	53289951 3963 8173324 11504269 103.638543264501 162.783584114903 119 28 28 3332 93296
2316	53293914 3297 8603102 11506079 110.319651344331 162.838738607076 99 28 28 2772 77616
2317	53297211 3297 8603102 11506079 110.319651344331 162.838738607076 99 28 28 2772 77616
2318	53300508 1547 8210218 9398559 104.192432359529 123.361464024351 47 28 28 1316 36848
2319	53302055 1547 8210218 9398559 104.192432359529 123.361464024351 47 28 28 1316 36848
2320	53303602 3004 8160051 11190587 103.423672401975 156.473118782467 90 28 28 2520 70560
2321	53306606 3004 8160051 11190587 103.423672401975 156.473118782467 90 28 28 2520 70560
2324	53309610 2199 8152220 9765848 103.343101643634 129.737623773209 67 28 28 1876 52528
2325	53311809 2199 8152220 9765848 103.343101643634 129.737623773209 67 28 28 1876 52528
2326	53314008 1186 8158698 9272481 103.405764748661 121.21896748214 36 28 28 1008 28224
2327	53315194 1186 8158698 9272481 103.405764748661 121.21896748214 36 28 28 1008 28224
0	53316380 14262 11541091 14822218 163.537299702332 250.600546565444 324 0.24595606577786 0.42186873550408 109.233679625 37.624639222277
1	53330642 2307 11541093 14822016 163.537299702332 250.600322565444 75 28 28 2100 58800
2	53332949 2232 11541093 14822016 163.537299702332 250.600322565444 75 0 0 0 0
3	53335181 2307 11541094 14822017 163.537299702332 250.600322565444 75 28 28 2100 58800
4	53337488 4464 11541094 14822218 163.537299702332 250.600546565444 150 2 3 375 975
5	53341952 34128 11541094 14822218 163.537299702332 250.600546565444 1062 0 0.1 9.3419999999999 0.759924
6	53376080 34128 11541094 14822218 163.537299702332 250.600546565444 1062 0 0.1 9.3419999999999 0.759924
7	53410208 9114 11541094 14822218 163.537299702332 250.600546565444 306 0 3 387 855
8	53419322 8928 11541094 14822218 163.537299702332 250.600546565444 300 0 2 300 450
9	53428250 2307 11541094 14822017 163.537299702332 250.600322565444 75 28 28 2100 58800
10	53430557 12368 11520112 14853692 163.115786165522 251.626375052639 400 0 3 464 992
11	53442925 48928 11520112 14853692 163.115786165522 251.626375052639 1472 0 0.1 13.552 1.131744
12	53491853 18948 11520109 14853692 163.115786165522 251.626375052639 418 0.090881361463538 0.27051885923777 79.600134574602 16.339946473311
13	53510801 48928 11520112 14853692 163.115786165522 251.626375052639 1472 0 0.1 13.552 1.131744
14	53559729 2812 11542723 14853693 163.570418572446 251.626375052639 88 28 28 2464 68992
15	53562541 2812 11542723 14853693 163.570418572446 251.626375052639 88 28 28 2464 68992
16	53565353 22003 11515500 14856936 163.034760763985 251.747019610034 486 0.049066578660102 0.22920866435222 67.387993395912 10.727870821728
17	53587356 12085 11521198 13026930 163.145273351122 197.738762052 262 0 0.070543521401756 8.4631591805072 0.41244739403784
18	53599441 1780 11523011 13019458 163.204659117306 197.596445521336 56 28 28 1568 43904
19	53601221 1724 11523011 13019458 163.204659117306 197.596445521336 56 0 0 0 0
20	53602945 1780 11523012 13019459 163.204659117306 197.596445521336 56 28 28 1568 43904
21	53604725 3476 11523012 13026930 163.204659117306 197.738762052 113 0 3 280 728
22	53608201 28081 11521198 13026930 163.145273351122 197.738762052 846 0 0.1 7.1539999999999 0.568788
23	53636282 28081 11521198 13026930 163.145273351122 197.738762052 846 0 0.1 7.1539999999999 0.568788
24	53664363 7862 11521198 13026930 163.145273351122 197.738762052 255 0 3 340 766
25	53672225 6896 11523012 13019661 163.204659117306 197.596669521336 224 0 2 224 336
26	53679121 1780 11523012 13019459 163.204659117306 197.596445521336 56 28 28 1568 43904
27	53680901 4581 11526920 11894173 163.272462615771 170.876383495575 100 0 0.015577889759608 0.7331840720172 0.0072184053969696
28	53685482 31945 11515847 14857051 163.038191063643 251.754294700416 1042 1 2 1559 2593
29	53717427 438 11536517 11882092 163.46262424905 170.690563416525 14 28 28 392 10976
30	53717865 424 11536517 11882092 163.46262424905 170.690563416525 14 0 0 0 0
31	53718289 438 11536518 11882093 163.46262424905 170.690563416525 14 28 28 392 10976
32	53718727 879 11536518 11894173 163.46262424905 170.876383495575 29 0 3 70 182
33	53719606 9319 11526920 11894173 163.272462615771 170.876383495575 282 0 0.1 2.03 0.14406
34	53728925 9319 11526920 11894173 163.272462615771 170.876383495575 282 0 0.1 2.03 0.14406
35	53738244 3041 11526920 11894173 163.272462615771 170.876383495575 99 0 3 154 364
36	53741285 1696 11536518 11882294 163.46262424905 170.